$DATA1 SOURCE='HSPICE' VERSION='F-2011.09-SP1 64-BIT'
.TITLE '* hspice timing acquisition'
 index            index            nc_td            adrv_cap          
                  iptr             cap_out          t_a0              
                  v_a0             t_a1             v_a1              
                  t_b0             v_b0             t_b1              
                  v_b1             t_b2             v_b2              
                  t_b3             v_b3             t_b4              
                  v_b4             t_b5             v_b5              
                  t_b6             v_b6             t_b7              
                  v_b7             t_b8             v_b8              
                  t_b9             v_b9             t_b10             
                  v_b10            t_b11            v_b11             
                  t_b12            v_b12            t_b13             
                  v_b13            t_b14            v_b14             
                  t_b15            v_b15            nc_delay_b_out    
                  nc_inref_b       nc_optr_out      nc_fulloptr_out   
                  t_b_trip1        t_b_trip2        t_stop_b          
                  t_stop_out       t_simstop        t_b_trip_incap1   
                  t_b_trip_incap2  nc_intg_i_b      nc_intg_i1_b      
                  nc_intg_i2_b     nc_incap_b       nc_incap_c1_b     
                  nc_incap_c2_b    nc_iptr_b        real_iptr_b       
                  nc_when_a        nc_when_b        nc_when_out       
                  nc_leak_i_a      nc_leak_i_b      nc_leak_i_vss     
                  nc_leak_i_vdd    nc_dyn_energy    t_int_energy      
                  nc_int_energy    nc_dyn_eng_vss   nc_dyn_eng_vdd    
                  nc_dyn_abs_energy nc_charge_vss    nc_charge_vdd     
                  nc_sidecap       temper           alter#            
 1                 1.000000000e+00  4.010000000e-09  5.000000000e-12  
                   6.000000000e-12  6.000000000e-15  0.000000000e+00  
                   1.200000000e+00  4.000000000e-07  1.200000000e+00  
                   0.000000000e+00  0.000000000e+00  4.000000000e-09  
                   0.000000000e+00  4.010000000e-09  0.000000000e+00  
                   4.011200000e-09  6.000000000e-02  4.012400000e-09  
                   2.177445717e-01  4.013600000e-09  3.768186931e-01  
                   4.014800000e-09  5.163496080e-01  4.016000000e-09  
                   6.401923789e-01  4.017200000e-09  7.514416244e-01  
                   4.018400000e-09  8.525815239e-01  4.019600000e-09  
                   9.456062310e-01  4.020800000e-09  1.032116536e+00  
                   4.022000000e-09  1.113397459e+00  4.023200000e-09  
                   1.190480541e+00  4.024400000e-09  1.200000000e+00  
                   4.025600000e-09  1.200000000e+00  1.804995906e-12  
                   4.015597813e-09  1.791465183e-11    failed         
                   4.013020506e-09  4.019012505e-09  4.022414138e-09  
                     failed           failed         4.010120000e-09  
                   4.019012505e-09 -2.160202893e-14 -1.389494675e-14  
                  -7.707082177e-15  2.416334332e-14  2.339216625e-14  
                   2.569027392e-14  6.000000000e-12  5.991998613e-12  
                   1.000000000e+00  1.000000000e+00  1.000000000e+00  
                  -7.705508813e-08  3.710867672e-08  9.544910674e-08  
                  -5.550269533e-08    failed           failed         
                     failed           failed           failed         
                     failed           failed           failed         
                   2.400000000e-14  2.500000000e+01 1                 
 2                 2.000000000e+00  4.010000000e-09  5.000000000e-12  
                   6.000000000e-12  9.000000000e-15  0.000000000e+00  
                   1.200000000e+00  4.000000000e-07  1.200000000e+00  
                   0.000000000e+00  0.000000000e+00  4.000000000e-09  
                   0.000000000e+00  4.010000000e-09  0.000000000e+00  
                   4.011200000e-09  6.000000000e-02  4.012400000e-09  
                   2.177445717e-01  4.013600000e-09  3.768186931e-01  
                   4.014800000e-09  5.163496080e-01  4.016000000e-09  
                   6.401923789e-01  4.017200000e-09  7.514416244e-01  
                   4.018400000e-09  8.525815239e-01  4.019600000e-09  
                   9.456062310e-01  4.020800000e-09  1.032116536e+00  
                   4.022000000e-09  1.113397459e+00  4.023200000e-09  
                   1.190480541e+00  4.024400000e-09  1.200000000e+00  
                   4.025600000e-09  1.200000000e+00  2.050912128e-12  
                   4.015610548e-09  2.024367958e-11    failed         
                   4.013020506e-09  4.019013354e-09  4.022414138e-09  
                     failed           failed         4.010120000e-09  
                   4.019013354e-09 -2.323292827e-14 -1.488742949e-14  
                  -8.345498779e-15  2.598761551e-14  2.506301261e-14  
                   2.781832926e-14  6.000000000e-12  5.992847983e-12  
                   1.000000000e+00  1.000000000e+00  1.000000000e+00  
                  -7.705508813e-08  3.710867672e-08  9.544910674e-08  
                  -5.550269533e-08    failed           failed         
                     failed           failed           failed         
                     failed           failed           failed         
                   2.400000000e-14  2.500000000e+01 1                 
 3                 3.000000000e+00  4.010000000e-09  5.000000000e-12  
                   6.000000000e-12  1.200000000e-14  0.000000000e+00  
                   1.200000000e+00  4.000000000e-07  1.200000000e+00  
                   0.000000000e+00  0.000000000e+00  4.000000000e-09  
                   0.000000000e+00  4.010000000e-09  0.000000000e+00  
                   4.011200000e-09  6.000000000e-02  4.012400000e-09  
                   2.177445717e-01  4.013600000e-09  3.768186931e-01  
                   4.014800000e-09  5.163496080e-01  4.016000000e-09  
                   6.401923789e-01  4.017200000e-09  7.514416244e-01  
                   4.018400000e-09  8.525815239e-01  4.019600000e-09  
                   9.456062310e-01  4.020800000e-09  1.032116536e+00  
                   4.022000000e-09  1.113397459e+00  4.023200000e-09  
                   1.190480541e+00  4.024400000e-09  1.200000000e+00  
                   4.025600000e-09  1.200000000e+00  2.311510545e-12  
                   4.015610548e-09  2.255645783e-11    failed         
                   4.013020506e-09  4.019013088e-09  4.022414138e-09  
                     failed           failed         4.010120000e-09  
                   4.019013088e-09 -2.477868449e-14 -1.577217601e-14  
                  -9.006508477e-15  2.771664932e-14  2.655248487e-14  
                   3.002169492e-14  6.000000000e-12  5.992581901e-12  
                   1.000000000e+00  1.000000000e+00  1.000000000e+00  
                  -7.705508813e-08  3.710867672e-08  9.544910674e-08  
                  -5.550269533e-08    failed           failed         
                     failed           failed           failed         
                     failed           failed           failed         
                   2.400000000e-14  2.500000000e+01 1                 
 4                 4.000000000e+00  4.010000000e-09  5.000000000e-12  
                   6.000000000e-12  1.500000000e-14  0.000000000e+00  
                   1.200000000e+00  4.000000000e-07  1.200000000e+00  
                   0.000000000e+00  0.000000000e+00  4.000000000e-09  
                   0.000000000e+00  4.010000000e-09  0.000000000e+00  
                   4.011200000e-09  6.000000000e-02  4.012400000e-09  
                   2.177445717e-01  4.013600000e-09  3.768186931e-01  
                   4.014800000e-09  5.163496080e-01  4.016000000e-09  
                   6.401923789e-01  4.017200000e-09  7.514416244e-01  
                   4.018400000e-09  8.525815239e-01  4.019600000e-09  
                   9.456062310e-01  4.020800000e-09  1.032116536e+00  
                   4.022000000e-09  1.113397459e+00  4.023200000e-09  
                   1.190480541e+00  4.024400000e-09  1.200000000e+00  
                   4.025600000e-09  1.200000000e+00  2.563331979e-12  
                   4.015610548e-09  2.462311646e-11    failed         
                   4.013020506e-09  4.019013103e-09  4.022414138e-09  
                     failed           failed         4.010120000e-09  
                   4.019013103e-09 -2.624673506e-14 -1.659029071e-14  
                  -9.656444343e-15  2.935876405e-14  2.792978235e-14  
                   3.218814781e-14  6.000000000e-12  5.992597001e-12  
                   1.000000000e+00  1.000000000e+00  1.000000000e+00  
                  -7.705508813e-08  3.710867672e-08  9.544910674e-08  
                  -5.550269533e-08    failed           failed         
                     failed           failed           failed         
                     failed           failed           failed         
                   2.400000000e-14  2.500000000e+01 1                 
 5                 5.000000000e+00  4.010000000e-09  5.000000000e-12  
                   6.000000000e-12  1.800000000e-14  0.000000000e+00  
                   1.200000000e+00  4.000000000e-07  1.200000000e+00  
                   0.000000000e+00  0.000000000e+00  4.000000000e-09  
                   0.000000000e+00  4.010000000e-09  0.000000000e+00  
                   4.011200000e-09  6.000000000e-02  4.012400000e-09  
                   2.177445717e-01  4.013600000e-09  3.768186931e-01  
                   4.014800000e-09  5.163496080e-01  4.016000000e-09  
                   6.401923789e-01  4.017200000e-09  7.514416244e-01  
                   4.018400000e-09  8.525815239e-01  4.019600000e-09  
                   9.456062310e-01  4.020800000e-09  1.032116536e+00  
                   4.022000000e-09  1.113397459e+00  4.023200000e-09  
                   1.190480541e+00  4.024400000e-09  1.200000000e+00  
                   4.025600000e-09  1.200000000e+00  2.811504523e-12  
                   4.015610548e-09  2.682993801e-11    failed         
                   4.013020506e-09  4.019013327e-09  4.022414138e-09  
                     failed           failed         4.010120000e-09  
                   4.019013327e-09 -2.763851971e-14 -1.734708214e-14  
                  -1.029143757e-14  3.091557015e-14  2.920384198e-14  
                   3.430479191e-14  6.000000000e-12  5.992820821e-12  
                   1.000000000e+00  1.000000000e+00  1.000000000e+00  
                  -7.705508813e-08  3.710867672e-08  9.544910674e-08  
                  -5.550269533e-08    failed           failed         
                     failed           failed           failed         
                     failed           failed           failed         
                   2.400000000e-14  2.500000000e+01 1                 
 6                 6.000000000e+00  4.010000000e-09  5.000000000e-12  
                   6.000000000e-12  2.100000000e-14  0.000000000e+00  
                   1.200000000e+00  4.000000000e-07  1.200000000e+00  
                   0.000000000e+00  0.000000000e+00  4.000000000e-09  
                   0.000000000e+00  4.010000000e-09  0.000000000e+00  
                   4.011200000e-09  6.000000000e-02  4.012400000e-09  
                   2.177445717e-01  4.013600000e-09  3.768186931e-01  
                   4.014800000e-09  5.163496080e-01  4.016000000e-09  
                   6.401923789e-01  4.017200000e-09  7.514416244e-01  
                   4.018400000e-09  8.525815239e-01  4.019600000e-09  
                   9.456062310e-01  4.020800000e-09  1.032116536e+00  
                   4.022000000e-09  1.113397459e+00  4.023200000e-09  
                   1.190480541e+00  4.024400000e-09  1.200000000e+00  
                   4.025600000e-09  1.200000000e+00  3.090507719e-12  
                   4.015610548e-09  2.883707675e-11    failed         
                   4.013020506e-09  4.019013535e-09  4.022414138e-09  
                     failed           failed         4.010120000e-09  
                   4.019013535e-09 -2.900063128e-14 -1.809099111e-14  
                  -1.090964016e-14  3.243918487e-14  3.045621399e-14  
                   3.636546721e-14  6.000000000e-12  5.993028861e-12  
                   1.000000000e+00  1.000000000e+00  1.000000000e+00  
                  -7.705508813e-08  3.710867672e-08  9.544910674e-08  
                  -5.550269533e-08    failed           failed         
                     failed           failed           failed         
                     failed           failed           failed         
                   2.400000000e-14  2.500000000e+01 1                 
 7                 7.000000000e+00  4.010000000e-09  5.000000000e-12  
                   6.000000000e-12  2.400000000e-14  0.000000000e+00  
                   1.200000000e+00  4.000000000e-07  1.200000000e+00  
                   0.000000000e+00  0.000000000e+00  4.000000000e-09  
                   0.000000000e+00  4.010000000e-09  0.000000000e+00  
                   4.011200000e-09  6.000000000e-02  4.012400000e-09  
                   2.177445717e-01  4.013600000e-09  3.768186931e-01  
                   4.014800000e-09  5.163496080e-01  4.016000000e-09  
                   6.401923789e-01  4.017200000e-09  7.514416244e-01  
                   4.018400000e-09  8.525815239e-01  4.019600000e-09  
                   9.456062310e-01  4.020800000e-09  1.032116536e+00  
                   4.022000000e-09  1.113397459e+00  4.023200000e-09  
                   1.190480541e+00  4.024400000e-09  1.200000000e+00  
                   4.025600000e-09  1.200000000e+00  3.358468573e-12  
                   4.015610823e-09  3.087483790e-11    failed         
                   4.013020639e-09  4.019013591e-09  4.022414138e-09  
                     failed           failed         4.010120000e-09  
                   4.019013591e-09 -3.025459657e-14 -1.874587622e-14  
                  -1.150872035e-14  3.384183062e-14  3.155871418e-14  
                   3.836240116e-14  6.000000000e-12  5.992952428e-12  
                   1.000000000e+00  1.000000000e+00  1.000000000e+00  
                  -7.705508813e-08  3.710867672e-08  9.544910674e-08  
                  -5.550269533e-08    failed           failed         
                     failed           failed           failed         
                     failed           failed           failed         
                   2.400000000e-14  2.500000000e+01 1                 
 8                 8.000000000e+00  4.010000000e-09  5.000000000e-12  
                   6.000000000e-12  2.700000000e-14  0.000000000e+00  
                   1.200000000e+00  4.000000000e-07  1.200000000e+00  
                   0.000000000e+00  0.000000000e+00  4.000000000e-09  
                   0.000000000e+00  4.010000000e-09  0.000000000e+00  
                   4.011200000e-09  6.000000000e-02  4.012400000e-09  
                   2.177445717e-01  4.013600000e-09  3.768186931e-01  
                   4.014800000e-09  5.163496080e-01  4.016000000e-09  
                   6.401923789e-01  4.017200000e-09  7.514416244e-01  
                   4.018400000e-09  8.525815239e-01  4.019600000e-09  
                   9.456062310e-01  4.020800000e-09  1.032116536e+00  
                   4.022000000e-09  1.113397459e+00  4.023200000e-09  
                   1.190480541e+00  4.024400000e-09  1.200000000e+00  
                   4.025600000e-09  1.200000000e+00  3.617633155e-12  
                   4.015612020e-09  3.261715021e-11    failed         
                   4.013020737e-09  4.019013353e-09  4.022414138e-09  
                     failed           failed         4.010120000e-09  
                   4.019013353e-09 -3.144348648e-14 -1.935784674e-14  
                  -1.208563974e-14  3.517168510e-14  3.258896758e-14  
                   4.028546579e-14  6.000000000e-12  5.992616672e-12  
                   1.000000000e+00  1.000000000e+00  1.000000000e+00  
                  -7.705508813e-08  3.710867672e-08  9.544910674e-08  
                  -5.550269533e-08    failed           failed         
                     failed           failed           failed         
                     failed           failed           failed         
                   2.400000000e-14  2.500000000e+01 1                 
 9                 9.000000000e+00  4.010000000e-09  5.000000000e-12  
                   6.000000000e-12  3.000000000e-14  0.000000000e+00  
                   1.200000000e+00  4.000000000e-07  1.200000000e+00  
                   0.000000000e+00  0.000000000e+00  4.000000000e-09  
                   0.000000000e+00  4.010000000e-09  0.000000000e+00  
                   4.011200000e-09  6.000000000e-02  4.012400000e-09  
                   2.177445717e-01  4.013600000e-09  3.768186931e-01  
                   4.014800000e-09  5.163496080e-01  4.016000000e-09  
                   6.401923789e-01  4.017200000e-09  7.514416244e-01  
                   4.018400000e-09  8.525815239e-01  4.019600000e-09  
                   9.456062310e-01  4.020800000e-09  1.032116536e+00  
                   4.022000000e-09  1.113397459e+00  4.023200000e-09  
                   1.190480541e+00  4.024400000e-09  1.200000000e+00  
                   4.025600000e-09  1.200000000e+00  3.878778337e-12  
                   4.015612657e-09  3.470554392e-11    failed         
                   4.013020810e-09  4.019013157e-09  4.022414138e-09  
                     failed           failed         4.010120000e-09  
                   4.019013157e-09 -3.257052794e-14 -1.992610880e-14  
                  -1.264441914e-14  3.643235787e-14  3.354563771e-14  
                   4.214806380e-14  6.000000000e-12  5.992346343e-12  
                   1.000000000e+00  1.000000000e+00  1.000000000e+00  
                  -7.705508813e-08  3.710867672e-08  9.544910674e-08  
                  -5.550269533e-08    failed           failed         
                     failed           failed           failed         
                     failed           failed           failed         
                   2.400000000e-14  2.500000000e+01 1                 
 10                1.000000000e+01  4.010000000e-09  5.000000000e-12  
                   6.000000000e-12  3.300000000e-14  0.000000000e+00  
                   1.200000000e+00  4.000000000e-07  1.200000000e+00  
                   0.000000000e+00  0.000000000e+00  4.000000000e-09  
                   0.000000000e+00  4.010000000e-09  0.000000000e+00  
                   4.011200000e-09  6.000000000e-02  4.012400000e-09  
                   2.177445717e-01  4.013600000e-09  3.768186931e-01  
                   4.014800000e-09  5.163496080e-01  4.016000000e-09  
                   6.401923789e-01  4.017200000e-09  7.514416244e-01  
                   4.018400000e-09  8.525815239e-01  4.019600000e-09  
                   9.456062310e-01  4.020800000e-09  1.032116536e+00  
                   4.022000000e-09  1.113397459e+00  4.023200000e-09  
                   1.190480541e+00  4.024400000e-09  1.200000000e+00  
                   4.025600000e-09  1.200000000e+00  4.166297744e-12  
                   4.015599065e-09  3.663059382e-11    failed         
                   4.013020868e-09  4.019012937e-09  4.022414138e-09  
                     failed           failed         4.010120000e-09  
                   4.019012937e-09 -3.364614120e-14 -2.039574132e-14  
                  -1.325039988e-14  3.763550470e-14  3.433626485e-14  
                   4.416799960e-14  6.000000000e-12  5.992069683e-12  
                   1.000000000e+00  1.000000000e+00  1.000000000e+00  
                  -7.705508813e-08  3.710867672e-08  9.544910674e-08  
                  -5.550269533e-08    failed           failed         
                     failed           failed           failed         
                     failed           failed           failed         
                   2.400000000e-14  2.500000000e+01 1                 
 11                1.100000000e+01  4.010000000e-09  5.000000000e-12  
                   6.000000000e-12  3.600000000e-14  0.000000000e+00  
                   1.200000000e+00  4.000000000e-07  1.200000000e+00  
                   0.000000000e+00  0.000000000e+00  4.000000000e-09  
                   0.000000000e+00  4.010000000e-09  0.000000000e+00  
                   4.011200000e-09  6.000000000e-02  4.012400000e-09  
                   2.177445717e-01  4.013600000e-09  3.768186931e-01  
                   4.014800000e-09  5.163496080e-01  4.016000000e-09  
                   6.401923789e-01  4.017200000e-09  7.514416244e-01  
                   4.018400000e-09  8.525815239e-01  4.019600000e-09  
                   9.456062310e-01  4.020800000e-09  1.032116536e+00  
                   4.022000000e-09  1.113397459e+00  4.023200000e-09  
                   1.190480541e+00  4.024400000e-09  1.200000000e+00  
                   4.025600000e-09  1.200000000e+00  4.417853284e-12  
                   4.015612856e-09  3.831189650e-11    failed         
                   4.013020914e-09  4.019012899e-09  4.022414138e-09  
                     failed           failed         4.010120000e-09  
                   4.019012899e-09 -3.465581118e-14 -2.094787366e-14  
                  -1.370793752e-14  3.876488946e-14  3.526578058e-14  
                   4.569312506e-14  6.000000000e-12  5.991985129e-12  
                   1.000000000e+00  1.000000000e+00  1.000000000e+00  
                  -7.705508813e-08  3.710867672e-08  9.544910674e-08  
                  -5.550269533e-08    failed           failed         
                     failed           failed           failed         
                     failed           failed           failed         
                   2.400000000e-14  2.500000000e+01 1                 
 12                1.200000000e+01  4.010000000e-09  5.000000000e-12  
                   6.000000000e-12  4.000000000e-14  0.000000000e+00  
                   1.200000000e+00  4.000000000e-07  1.200000000e+00  
                   0.000000000e+00  0.000000000e+00  4.000000000e-09  
                   0.000000000e+00  4.010000000e-09  0.000000000e+00  
                   4.011200000e-09  6.000000000e-02  4.012400000e-09  
                   2.177445717e-01  4.013600000e-09  3.768186931e-01  
                   4.014800000e-09  5.163496080e-01  4.016000000e-09  
                   6.401923789e-01  4.017200000e-09  7.514416244e-01  
                   4.018400000e-09  8.525815239e-01  4.019600000e-09  
                   9.456062310e-01  4.020800000e-09  1.032116536e+00  
                   4.022000000e-09  1.113397459e+00  4.023200000e-09  
                   1.190480541e+00  4.024400000e-09  1.200000000e+00  
                   4.025600000e-09  1.200000000e+00  4.759574559e-12  
                   4.015612603e-09  4.075356993e-11    failed         
                   4.013020966e-09  4.019012751e-09  4.022414138e-09  
                     failed           failed         4.010120000e-09  
                   4.019012751e-09 -3.593132045e-14 -2.155554988e-14  
                  -1.437577058e-14  4.019163362e-14  3.628880450e-14  
                   4.791923526e-14  6.000000000e-12  5.991785891e-12  
                   1.000000000e+00  1.000000000e+00  1.000000000e+00  
                  -7.705508813e-08  3.710867672e-08  9.544910674e-08  
                  -5.550269533e-08    failed           failed         
                     failed           failed           failed         
                     failed           failed           failed         
                   2.400000000e-14  2.500000000e+01 1                 
 13                1.300000000e+01  4.010000000e-09  5.000000000e-12  
                   6.000000000e-12  4.200000000e-14  0.000000000e+00  
                   1.200000000e+00  4.000000000e-07  1.200000000e+00  
                   0.000000000e+00  0.000000000e+00  4.000000000e-09  
                   0.000000000e+00  4.010000000e-09  0.000000000e+00  
                   4.011200000e-09  6.000000000e-02  4.012400000e-09  
                   2.177445717e-01  4.013600000e-09  3.768186931e-01  
                   4.014800000e-09  5.163496080e-01  4.016000000e-09  
                   6.401923789e-01  4.017200000e-09  7.514416244e-01  
                   4.018400000e-09  8.525815239e-01  4.019600000e-09  
                   9.456062310e-01  4.020800000e-09  1.032116536e+00  
                   4.022000000e-09  1.113397459e+00  4.023200000e-09  
                   1.190480541e+00  4.024400000e-09  1.200000000e+00  
                   4.025600000e-09  1.200000000e+00  4.933133877e-12  
                   4.015612508e-09  4.213539110e-11    failed         
                   4.013020988e-09  4.019012640e-09  4.022414138e-09  
                     failed           failed         4.010120000e-09  
                   4.019012640e-09 -3.653719406e-14 -2.184038241e-14  
                  -1.469681165e-14  4.086934459e-14  3.676832056e-14  
                   4.898937217e-14  6.000000000e-12  5.991651956e-12  
                   1.000000000e+00  1.000000000e+00  1.000000000e+00  
                  -7.705508813e-08  3.710867672e-08  9.544910674e-08  
                  -5.550269533e-08    failed           failed         
                     failed           failed           failed         
                     failed           failed           failed         
                   2.400000000e-14  2.500000000e+01 1                 
 14                1.400000000e+01  4.010000000e-09  5.000000000e-12  
                   1.200000000e-11  6.000000000e-15  0.000000000e+00  
                   1.200000000e+00  4.000000000e-07  1.200000000e+00  
                   0.000000000e+00  0.000000000e+00  4.000000000e-09  
                   0.000000000e+00  4.010000000e-09  0.000000000e+00  
                   4.012400000e-09  6.000000000e-02  4.014800000e-09  
                   2.177445717e-01  4.017200000e-09  3.768186931e-01  
                   4.019600000e-09  5.163496080e-01  4.022000000e-09  
                   6.401923789e-01  4.024400000e-09  7.514416244e-01  
                   4.026800000e-09  8.525815239e-01  4.029200000e-09  
                   9.456062310e-01  4.031600000e-09  1.032116536e+00  
                   4.034000000e-09  1.113397459e+00  4.036400000e-09  
                   1.190480541e+00  4.038800000e-09  1.200000000e+00  
                   4.041200000e-09  1.200000000e+00  1.874599783e-12  
                   4.021196454e-09  1.962615587e-11    failed         
                   4.016041643e-09  4.028023392e-09  4.034828276e-09  
                     failed           failed         4.010240000e-09  
                   4.028023392e-09 -2.363406584e-14 -1.593634455e-14  
                  -7.697721289e-15  2.643631526e-14  2.682886289e-14  
                   2.565907096e-14  1.200000000e-11  1.198174958e-11  
                   1.000000000e+00  1.000000000e+00  1.000000000e+00  
                  -7.705508813e-08  3.710867672e-08  9.544910674e-08  
                  -5.550269533e-08    failed           failed         
                     failed           failed           failed         
                     failed           failed           failed         
                   2.400000000e-14  2.500000000e+01 1                 
 15                1.500000000e+01  4.010000000e-09  5.000000000e-12  
                   1.200000000e-11  9.000000000e-15  0.000000000e+00  
                   1.200000000e+00  4.000000000e-07  1.200000000e+00  
                   0.000000000e+00  0.000000000e+00  4.000000000e-09  
                   0.000000000e+00  4.010000000e-09  0.000000000e+00  
                   4.012400000e-09  6.000000000e-02  4.014800000e-09  
                   2.177445717e-01  4.017200000e-09  3.768186931e-01  
                   4.019600000e-09  5.163496080e-01  4.022000000e-09  
                   6.401923789e-01  4.024400000e-09  7.514416244e-01  
                   4.026800000e-09  8.525815239e-01  4.029200000e-09  
                   9.456062310e-01  4.031600000e-09  1.032116536e+00  
                   4.034000000e-09  1.113397459e+00  4.036400000e-09  
                   1.190480541e+00  4.038800000e-09  1.200000000e+00  
                   4.041200000e-09  1.200000000e+00  2.109303991e-12  
                   4.021195575e-09  2.150411552e-11    failed         
                   4.016041013e-09  4.028025998e-09  4.034828276e-09  
                     failed           failed         4.010240000e-09  
                   4.028025998e-09 -2.562247517e-14 -1.723503670e-14  
                  -8.387438470e-15  2.866048677e-14  2.901521330e-14  
                   2.795812823e-14  1.200000000e-11  1.198498543e-11  
                   1.000000000e+00  1.000000000e+00  1.000000000e+00  
                  -7.705508813e-08  3.710867672e-08  9.544910674e-08  
                  -5.550269533e-08    failed           failed         
                     failed           failed           failed         
                     failed           failed           failed         
                   2.400000000e-14  2.500000000e+01 1                 
 16                1.600000000e+01  4.010000000e-09  5.000000000e-12  
                   1.200000000e-11  1.200000000e-14  0.000000000e+00  
                   1.200000000e+00  4.000000000e-07  1.200000000e+00  
                   0.000000000e+00  0.000000000e+00  4.000000000e-09  
                   0.000000000e+00  4.010000000e-09  0.000000000e+00  
                   4.012400000e-09  6.000000000e-02  4.014800000e-09  
                   2.177445717e-01  4.017200000e-09  3.768186931e-01  
                   4.019600000e-09  5.163496080e-01  4.022000000e-09  
                   6.401923789e-01  4.024400000e-09  7.514416244e-01  
                   4.026800000e-09  8.525815239e-01  4.029200000e-09  
                   9.456062310e-01  4.031600000e-09  1.032116536e+00  
                   4.034000000e-09  1.113397459e+00  4.036400000e-09  
                   1.190480541e+00  4.038800000e-09  1.200000000e+00  
                   4.041200000e-09  1.200000000e+00  2.341292168e-12  
                   4.021195127e-09  2.377759467e-11    failed         
                   4.016041013e-09  4.028026975e-09  4.034828276e-09  
                     failed           failed         4.010240000e-09  
                   4.028026975e-09 -2.756068950e-14 -1.848163401e-14  
                  -9.079055495e-15  3.082851175e-14  3.111386197e-14  
                   3.026351832e-14  1.200000000e-11  1.198596209e-11  
                   1.000000000e+00  1.000000000e+00  1.000000000e+00  
                  -7.705508813e-08  3.710867672e-08  9.544910674e-08  
                  -5.550269533e-08    failed           failed         
                     failed           failed           failed         
                     failed           failed           failed         
                   2.400000000e-14  2.500000000e+01 1                 
 17                1.700000000e+01  4.010000000e-09  5.000000000e-12  
                   1.200000000e-11  1.500000000e-14  0.000000000e+00  
                   1.200000000e+00  4.000000000e-07  1.200000000e+00  
                   0.000000000e+00  0.000000000e+00  4.000000000e-09  
                   0.000000000e+00  4.010000000e-09  0.000000000e+00  
                   4.012400000e-09  6.000000000e-02  4.014800000e-09  
                   2.177445717e-01  4.017200000e-09  3.768186931e-01  
                   4.019600000e-09  5.163496080e-01  4.022000000e-09  
                   6.401923789e-01  4.024400000e-09  7.514416244e-01  
                   4.026800000e-09  8.525815239e-01  4.029200000e-09  
                   9.456062310e-01  4.031600000e-09  1.032116536e+00  
                   4.034000000e-09  1.113397459e+00  4.036400000e-09  
                   1.190480541e+00  4.038800000e-09  1.200000000e+00  
                   4.041200000e-09  1.200000000e+00  2.609080038e-12  
                   4.021195297e-09  2.615323240e-11    failed         
                   4.016041013e-09  4.028027623e-09  4.034828276e-09  
                     failed           failed         4.010240000e-09  
                   4.028027623e-09 -2.945092970e-14 -1.967813822e-14  
                  -9.772791477e-15  3.294287439e-14  3.312817883e-14  
                   3.257597159e-14  1.200000000e-11  1.198661028e-11  
                   1.000000000e+00  1.000000000e+00  1.000000000e+00  
                  -7.705508813e-08  3.710867672e-08  9.544910674e-08  
                  -5.550269533e-08    failed           failed         
                     failed           failed           failed         
                     failed           failed           failed         
                   2.400000000e-14  2.500000000e+01 1                 
 18                1.800000000e+01  4.010000000e-09  5.000000000e-12  
                   1.200000000e-11  1.800000000e-14  0.000000000e+00  
                   1.200000000e+00  4.000000000e-07  1.200000000e+00  
                   0.000000000e+00  0.000000000e+00  4.000000000e-09  
                   0.000000000e+00  4.010000000e-09  0.000000000e+00  
                   4.012400000e-09  6.000000000e-02  4.014800000e-09  
                   2.177445717e-01  4.017200000e-09  3.768186931e-01  
                   4.019600000e-09  5.163496080e-01  4.022000000e-09  
                   6.401923789e-01  4.024400000e-09  7.514416244e-01  
                   4.026800000e-09  8.525815239e-01  4.029200000e-09  
                   9.456062310e-01  4.031600000e-09  1.032116536e+00  
                   4.034000000e-09  1.113397459e+00  4.036400000e-09  
                   1.190480541e+00  4.038800000e-09  1.200000000e+00  
                   4.041200000e-09  1.200000000e+00  2.872857837e-12  
                   4.021195838e-09  2.841384461e-11    failed         
                   4.016041013e-09  4.028027716e-09  4.034828276e-09  
                     failed           failed         4.010240000e-09  
                   4.028027716e-09 -3.129311608e-14 -2.082513629e-14  
                  -1.046797979e-14  3.500348555e-14  3.505915201e-14  
                   3.489326596e-14  1.200000000e-11  1.198670304e-11  
                   1.000000000e+00  1.000000000e+00  1.000000000e+00  
                  -7.705508813e-08  3.710867672e-08  9.544910674e-08  
                  -5.550269533e-08    failed           failed         
                     failed           failed           failed         
                     failed           failed           failed         
                   2.400000000e-14  2.500000000e+01 1                 
 19                1.900000000e+01  4.010000000e-09  5.000000000e-12  
                   1.200000000e-11  2.100000000e-14  0.000000000e+00  
                   1.200000000e+00  4.000000000e-07  1.200000000e+00  
                   0.000000000e+00  0.000000000e+00  4.000000000e-09  
                   0.000000000e+00  4.010000000e-09  0.000000000e+00  
                   4.012400000e-09  6.000000000e-02  4.014800000e-09  
                   2.177445717e-01  4.017200000e-09  3.768186931e-01  
                   4.019600000e-09  5.163496080e-01  4.022000000e-09  
                   6.401923789e-01  4.024400000e-09  7.514416244e-01  
                   4.026800000e-09  8.525815239e-01  4.029200000e-09  
                   9.456062310e-01  4.031600000e-09  1.032116536e+00  
                   4.034000000e-09  1.113397459e+00  4.036400000e-09  
                   1.190480541e+00  4.038800000e-09  1.200000000e+00  
                   4.041200000e-09  1.200000000e+00  3.106167961e-12  
                   4.021221095e-09  3.071117867e-11    failed         
                   4.016041013e-09  4.028027670e-09  4.034828276e-09  
                     failed           failed         4.010240000e-09  
                   4.028027670e-09 -3.308305161e-14 -2.197275796e-14  
                  -1.111029365e-14  3.700565057e-14  3.699117502e-14  
                   3.703431215e-14  1.200000000e-11  1.198665727e-11  
                   1.000000000e+00  1.000000000e+00  1.000000000e+00  
                  -7.705508813e-08  3.710867672e-08  9.544910674e-08  
                  -5.550269533e-08    failed           failed         
                     failed           failed           failed         
                     failed           failed           failed         
                   2.400000000e-14  2.500000000e+01 1                 
 20                2.000000000e+01  4.010000000e-09  5.000000000e-12  
                   1.200000000e-11  2.400000000e-14  0.000000000e+00  
                   1.200000000e+00  4.000000000e-07  1.200000000e+00  
                   0.000000000e+00  0.000000000e+00  4.000000000e-09  
                   0.000000000e+00  4.010000000e-09  0.000000000e+00  
                   4.012400000e-09  6.000000000e-02  4.014800000e-09  
                   2.177445717e-01  4.017200000e-09  3.768186931e-01  
                   4.019600000e-09  5.163496080e-01  4.022000000e-09  
                   6.401923789e-01  4.024400000e-09  7.514416244e-01  
                   4.026800000e-09  8.525815239e-01  4.029200000e-09  
                   9.456062310e-01  4.031600000e-09  1.032116536e+00  
                   4.034000000e-09  1.113397459e+00  4.036400000e-09  
                   1.190480541e+00  4.038800000e-09  1.200000000e+00  
                   4.041200000e-09  1.200000000e+00  3.359866103e-12  
                   4.021221095e-09  3.264326548e-11    failed         
                   4.016041012e-09  4.028027612e-09  4.034828276e-09  
                     failed           failed         4.010240000e-09  
                   4.028027612e-09 -3.483004372e-14 -2.302628756e-14  
                  -1.180375616e-14  3.895978045e-14  3.876479388e-14  
                   3.934585386e-14  1.200000000e-11  1.198659940e-11  
                   1.000000000e+00  1.000000000e+00  1.000000000e+00  
                  -7.705508813e-08  3.710867672e-08  9.544910674e-08  
                  -5.550269533e-08    failed           failed         
                     failed           failed           failed         
                     failed           failed           failed         
                   2.400000000e-14  2.500000000e+01 1                 
 21                2.100000000e+01  4.010000000e-09  5.000000000e-12  
                   1.200000000e-11  2.700000000e-14  0.000000000e+00  
                   1.200000000e+00  4.000000000e-07  1.200000000e+00  
                   0.000000000e+00  0.000000000e+00  4.000000000e-09  
                   0.000000000e+00  4.010000000e-09  0.000000000e+00  
                   4.012400000e-09  6.000000000e-02  4.014800000e-09  
                   2.177445717e-01  4.017200000e-09  3.768186931e-01  
                   4.019600000e-09  5.163496080e-01  4.022000000e-09  
                   6.401923789e-01  4.024400000e-09  7.514416244e-01  
                   4.026800000e-09  8.525815239e-01  4.029200000e-09  
                   9.456062310e-01  4.031600000e-09  1.032116536e+00  
                   4.034000000e-09  1.113397459e+00  4.036400000e-09  
                   1.190480541e+00  4.038800000e-09  1.200000000e+00  
                   4.041200000e-09  1.200000000e+00  3.610448990e-12  
                   4.021221095e-09  3.487486259e-11    failed         
                   4.016041012e-09  4.028027539e-09  4.034828276e-09  
                     failed           failed         4.010240000e-09  
                   4.028027539e-09 -3.653078257e-14 -2.403503776e-14  
                  -1.249574481e-14  4.086217289e-14  4.046302654e-14  
                   4.165248269e-14  1.200000000e-11  1.198652653e-11  
                   1.000000000e+00  1.000000000e+00  1.000000000e+00  
                  -7.705508813e-08  3.710867672e-08  9.544910674e-08  
                  -5.550269533e-08    failed           failed         
                     failed           failed           failed         
                     failed           failed           failed         
                   2.400000000e-14  2.500000000e+01 1                 
 22                2.200000000e+01  4.010000000e-09  5.000000000e-12  
                   1.200000000e-11  3.000000000e-14  0.000000000e+00  
                   1.200000000e+00  4.000000000e-07  1.200000000e+00  
                   0.000000000e+00  0.000000000e+00  4.000000000e-09  
                   0.000000000e+00  4.010000000e-09  0.000000000e+00  
                   4.012400000e-09  6.000000000e-02  4.014800000e-09  
                   2.177445717e-01  4.017200000e-09  3.768186931e-01  
                   4.019600000e-09  5.163496080e-01  4.022000000e-09  
                   6.401923789e-01  4.024400000e-09  7.514416244e-01  
                   4.026800000e-09  8.525815239e-01  4.029200000e-09  
                   9.456062310e-01  4.031600000e-09  1.032116536e+00  
                   4.034000000e-09  1.113397459e+00  4.036400000e-09  
                   1.190480541e+00  4.038800000e-09  1.200000000e+00  
                   4.041200000e-09  1.200000000e+00  3.894263279e-12  
                   4.021221917e-09  3.680829803e-11    failed         
                   4.016041012e-09  4.028027342e-09  4.034828276e-09  
                     failed           failed         4.010240000e-09  
                   4.028027342e-09 -3.818660489e-14 -2.500249621e-14  
                  -1.318410868e-14  4.271432315e-14  4.209174446e-14  
                   4.394702895e-14  1.200000000e-11  1.198633005e-11  
                   1.000000000e+00  1.000000000e+00  1.000000000e+00  
                  -7.705508813e-08  3.710867672e-08  9.544910674e-08  
                  -5.550269533e-08    failed           failed         
                     failed           failed           failed         
                     failed           failed           failed         
                   2.400000000e-14  2.500000000e+01 1                 
 23                2.300000000e+01  4.010000000e-09  5.000000000e-12  
                   1.200000000e-11  3.300000000e-14  0.000000000e+00  
                   1.200000000e+00  4.000000000e-07  1.200000000e+00  
                   0.000000000e+00  0.000000000e+00  4.000000000e-09  
                   0.000000000e+00  4.010000000e-09  0.000000000e+00  
                   4.012400000e-09  6.000000000e-02  4.014800000e-09  
                   2.177445717e-01  4.017200000e-09  3.768186931e-01  
                   4.019600000e-09  5.163496080e-01  4.022000000e-09  
                   6.401923789e-01  4.024400000e-09  7.514416244e-01  
                   4.026800000e-09  8.525815239e-01  4.029200000e-09  
                   9.456062310e-01  4.031600000e-09  1.032116536e+00  
                   4.034000000e-09  1.113397459e+00  4.036400000e-09  
                   1.190480541e+00  4.038800000e-09  1.200000000e+00  
                   4.041200000e-09  1.200000000e+00  4.174916653e-12  
                   4.021223739e-09  3.874975778e-11    failed         
                   4.016041012e-09  4.028026952e-09  4.034828276e-09  
                     failed           failed         4.010240000e-09  
                   4.028026952e-09 -3.979852077e-14 -2.593122166e-14  
                  -1.386729912e-14  4.451736105e-14  4.365525532e-14  
                   4.622433039e-14  1.200000000e-11  1.198594020e-11  
                   1.000000000e+00  1.000000000e+00  1.000000000e+00  
                  -7.705508813e-08  3.710867672e-08  9.544910674e-08  
                  -5.550269533e-08    failed           failed         
                     failed           failed           failed         
                     failed           failed           failed         
                   2.400000000e-14  2.500000000e+01 1                 
 24                2.400000000e+01  4.010000000e-09  5.000000000e-12  
                   1.200000000e-11  3.600000000e-14  0.000000000e+00  
                   1.200000000e+00  4.000000000e-07  1.200000000e+00  
                   0.000000000e+00  0.000000000e+00  4.000000000e-09  
                   0.000000000e+00  4.010000000e-09  0.000000000e+00  
                   4.012400000e-09  6.000000000e-02  4.014800000e-09  
                   2.177445717e-01  4.017200000e-09  3.768186931e-01  
                   4.019600000e-09  5.163496080e-01  4.022000000e-09  
                   6.401923789e-01  4.024400000e-09  7.514416244e-01  
                   4.026800000e-09  8.525815239e-01  4.029200000e-09  
                   9.456062310e-01  4.031600000e-09  1.032116536e+00  
                   4.034000000e-09  1.113397459e+00  4.036400000e-09  
                   1.190480541e+00  4.038800000e-09  1.200000000e+00  
                   4.041200000e-09  1.200000000e+00  4.450989001e-12  
                   4.021225785e-09  4.078593548e-11    failed         
                   4.016041012e-09  4.028026376e-09  4.034828276e-09  
                     failed           failed         4.010240000e-09  
                   4.028026376e-09 -4.136670377e-14 -2.682171468e-14  
                  -1.454498908e-14  4.627148072e-14  4.515440182e-14  
                   4.848329695e-14  1.200000000e-11  1.198536468e-11  
                   1.000000000e+00  1.000000000e+00  1.000000000e+00  
                  -7.705508813e-08  3.710867672e-08  9.544910674e-08  
                  -5.550269533e-08    failed           failed         
                     failed           failed           failed         
                     failed           failed           failed         
                   2.400000000e-14  2.500000000e+01 1                 
 25                2.500000000e+01  4.010000000e-09  5.000000000e-12  
                   1.200000000e-11  4.000000000e-14  0.000000000e+00  
                   1.200000000e+00  4.000000000e-07  1.200000000e+00  
                   0.000000000e+00  0.000000000e+00  4.000000000e-09  
                   0.000000000e+00  4.010000000e-09  0.000000000e+00  
                   4.012400000e-09  6.000000000e-02  4.014800000e-09  
                   2.177445717e-01  4.017200000e-09  3.768186931e-01  
                   4.019600000e-09  5.163496080e-01  4.022000000e-09  
                   6.401923789e-01  4.024400000e-09  7.514416244e-01  
                   4.026800000e-09  8.525815239e-01  4.029200000e-09  
                   9.456062310e-01  4.031600000e-09  1.032116536e+00  
                   4.034000000e-09  1.113397459e+00  4.036400000e-09  
                   1.190480541e+00  4.038800000e-09  1.200000000e+00  
                   4.041200000e-09  1.200000000e+00  4.813248690e-12  
                   4.021228706e-09  4.317210733e-11    failed         
                   4.016041011e-09  4.028025253e-09  4.034828276e-09  
                     failed           failed         4.010240000e-09  
                   4.028025253e-09 -4.339084587e-14 -2.795250459e-14  
                  -1.543834128e-14  4.853562178e-14  4.705808853e-14  
                   5.146113760e-14  1.200000000e-11  1.198424114e-11  
                   1.000000000e+00  1.000000000e+00  1.000000000e+00  
                  -7.705508813e-08  3.710867672e-08  9.544910674e-08  
                  -5.550269533e-08    failed           failed         
                     failed           failed           failed         
                     failed           failed           failed         
                   2.400000000e-14  2.500000000e+01 1                 
 26                2.600000000e+01  4.010000000e-09  5.000000000e-12  
                   1.200000000e-11  4.200000000e-14  0.000000000e+00  
                   1.200000000e+00  4.000000000e-07  1.200000000e+00  
                   0.000000000e+00  0.000000000e+00  4.000000000e-09  
                   0.000000000e+00  4.010000000e-09  0.000000000e+00  
                   4.012400000e-09  6.000000000e-02  4.014800000e-09  
                   2.177445717e-01  4.017200000e-09  3.768186931e-01  
                   4.019600000e-09  5.163496080e-01  4.022000000e-09  
                   6.401923789e-01  4.024400000e-09  7.514416244e-01  
                   4.026800000e-09  8.525815239e-01  4.029200000e-09  
                   9.456062310e-01  4.031600000e-09  1.032116536e+00  
                   4.034000000e-09  1.113397459e+00  4.036400000e-09  
                   1.190480541e+00  4.038800000e-09  1.200000000e+00  
                   4.041200000e-09  1.200000000e+00  4.992246615e-12  
                   4.021230205e-09  4.420759666e-11    failed         
                   4.016041011e-09  4.028024518e-09  4.034828276e-09  
                     failed           failed         4.010240000e-09  
                   4.028024518e-09 -4.437481907e-14 -2.849477739e-14  
                  -1.588004168e-14  4.963626294e-14  4.797100571e-14  
                   5.293347227e-14  1.200000000e-11  1.198350636e-11  
                   1.000000000e+00  1.000000000e+00  1.000000000e+00  
                  -7.705508813e-08  3.710867672e-08  9.544910674e-08  
                  -5.550269533e-08    failed           failed         
                     failed           failed           failed         
                     failed           failed           failed         
                   2.400000000e-14  2.500000000e+01 1                 
 27                2.700000000e+01  4.010000000e-09  5.000000000e-12  
                   2.400000000e-11  6.000000000e-15  0.000000000e+00  
                   1.200000000e+00  4.000000000e-07  1.200000000e+00  
                   0.000000000e+00  0.000000000e+00  4.000000000e-09  
                   0.000000000e+00  4.010000000e-09  0.000000000e+00  
                   4.014800000e-09  6.000000000e-02  4.019600000e-09  
                   2.177445717e-01  4.024400000e-09  3.768186931e-01  
                   4.029200000e-09  5.163496080e-01  4.034000000e-09  
                   6.401923789e-01  4.038800000e-09  7.514416244e-01  
                   4.043600000e-09  8.525815239e-01  4.048400000e-09  
                   9.456062310e-01  4.053200000e-09  1.032116536e+00  
                   4.058000000e-09  1.113397459e+00  4.062800000e-09  
                   1.190480541e+00  4.067600000e-09  1.200000000e+00  
                   4.072400000e-09  1.200000000e+00  1.880390753e-12  
                   4.032413037e-09  3.379680099e-11    failed         
                   4.022089471e-09  4.046050182e-09  4.059656553e-09  
                     failed           failed         4.010480000e-09  
                   4.046050182e-09 -2.495523526e-14 -1.728876055e-14  
                  -7.666474707e-15  2.791413340e-14  2.910565749e-14  
                   2.555491569e-14  2.400000000e-11  2.396071027e-11  
                   1.000000000e+00  1.000000000e+00  1.000000000e+00  
                  -7.705508813e-08  3.710867672e-08  9.544910674e-08  
                  -5.550269533e-08    failed           failed         
                     failed           failed           failed         
                     failed           failed           failed         
                   2.400000000e-14  2.500000000e+01 1                 
 28                2.800000000e+01  4.010000000e-09  5.000000000e-12  
                   2.400000000e-11  9.000000000e-15  0.000000000e+00  
                   1.200000000e+00  4.000000000e-07  1.200000000e+00  
                   0.000000000e+00  0.000000000e+00  4.000000000e-09  
                   0.000000000e+00  4.010000000e-09  0.000000000e+00  
                   4.014800000e-09  6.000000000e-02  4.019600000e-09  
                   2.177445717e-01  4.024400000e-09  3.768186931e-01  
                   4.029200000e-09  5.163496080e-01  4.034000000e-09  
                   6.401923789e-01  4.038800000e-09  7.514416244e-01  
                   4.043600000e-09  8.525815239e-01  4.048400000e-09  
                   9.456062310e-01  4.053200000e-09  1.032116536e+00  
                   4.058000000e-09  1.113397459e+00  4.062800000e-09  
                   1.190480541e+00  4.067600000e-09  1.200000000e+00  
                   4.072400000e-09  1.200000000e+00  2.102950384e-12  
                   4.032443807e-09  3.488661764e-11    failed         
                   4.022086364e-09  4.046062376e-09  4.059656553e-09  
                     failed           failed         4.010480000e-09  
                   4.046062376e-09 -2.719780367e-14 -1.886400774e-14  
                  -8.333795932e-15  3.042259919e-14  3.175758879e-14  
                   2.777931977e-14  2.400000000e-11  2.397601232e-11  
                   1.000000000e+00  1.000000000e+00  1.000000000e+00  
                  -7.705508813e-08  3.710867672e-08  9.544910674e-08  
                  -5.550269533e-08    failed           failed         
                     failed           failed           failed         
                     failed           failed           failed         
                   2.400000000e-14  2.500000000e+01 1                 
 29                2.900000000e+01  4.010000000e-09  5.000000000e-12  
                   2.400000000e-11  1.200000000e-14  0.000000000e+00  
                   1.200000000e+00  4.000000000e-07  1.200000000e+00  
                   0.000000000e+00  0.000000000e+00  4.000000000e-09  
                   0.000000000e+00  4.010000000e-09  0.000000000e+00  
                   4.014800000e-09  6.000000000e-02  4.019600000e-09  
                   2.177445717e-01  4.024400000e-09  3.768186931e-01  
                   4.029200000e-09  5.163496080e-01  4.034000000e-09  
                   6.401923789e-01  4.038800000e-09  7.514416244e-01  
                   4.043600000e-09  8.525815239e-01  4.048400000e-09  
                   9.456062310e-01  4.053200000e-09  1.032116536e+00  
                   4.058000000e-09  1.113397459e+00  4.062800000e-09  
                   1.190480541e+00  4.067600000e-09  1.200000000e+00  
                   4.072400000e-09  1.200000000e+00  2.344070434e-12  
                   4.032445230e-09  3.608378071e-11    failed         
                   4.022084838e-09  4.046065538e-09  4.059656553e-09  
                     failed           failed         4.010480000e-09  
                   4.046065538e-09 -2.938336706e-14 -2.036453338e-14  
                  -9.018833686e-15  3.286730096e-14  3.428372622e-14  
                   3.006277895e-14  2.400000000e-11  2.398070036e-11  
                   1.000000000e+00  1.000000000e+00  1.000000000e+00  
                  -7.705508813e-08  3.710867672e-08  9.544910674e-08  
                  -5.550269533e-08    failed           failed         
                     failed           failed           failed         
                     failed           failed           failed         
                   2.400000000e-14  2.500000000e+01 1                 
 30                3.000000000e+01  4.010000000e-09  5.000000000e-12  
                   2.400000000e-11  1.500000000e-14  0.000000000e+00  
                   1.200000000e+00  4.000000000e-07  1.200000000e+00  
                   0.000000000e+00  0.000000000e+00  4.000000000e-09  
                   0.000000000e+00  4.010000000e-09  0.000000000e+00  
                   4.014800000e-09  6.000000000e-02  4.019600000e-09  
                   2.177445717e-01  4.024400000e-09  3.768186931e-01  
                   4.029200000e-09  5.163496080e-01  4.034000000e-09  
                   6.401923789e-01  4.038800000e-09  7.514416244e-01  
                   4.043600000e-09  8.525815239e-01  4.048400000e-09  
                   9.456062310e-01  4.053200000e-09  1.032116536e+00  
                   4.058000000e-09  1.113397459e+00  4.062800000e-09  
                   1.190480541e+00  4.067600000e-09  1.200000000e+00  
                   4.072400000e-09  1.200000000e+00  2.579269042e-12  
                   4.032444475e-09  3.713755889e-11    failed         
                   4.022084230e-09  4.046065850e-09  4.059656553e-09  
                     failed           failed         4.010480000e-09  
                   4.046065850e-09 -3.153383530e-14 -2.183513890e-14  
                  -9.698696406e-15  3.527274643e-14  3.675949310e-14  
                   3.232898802e-14  2.400000000e-11  2.398161940e-11  
                   1.000000000e+00  1.000000000e+00  1.000000000e+00  
                  -7.705508813e-08  3.710867672e-08  9.544910674e-08  
                  -5.550269533e-08    failed           failed         
                     failed           failed           failed         
                     failed           failed           failed         
                   2.400000000e-14  2.500000000e+01 1                 
 31                3.100000000e+01  4.010000000e-09  5.000000000e-12  
                   2.400000000e-11  1.800000000e-14  0.000000000e+00  
                   1.200000000e+00  4.000000000e-07  1.200000000e+00  
                   0.000000000e+00  0.000000000e+00  4.000000000e-09  
                   0.000000000e+00  4.010000000e-09  0.000000000e+00  
                   4.014800000e-09  6.000000000e-02  4.019600000e-09  
                   2.177445717e-01  4.024400000e-09  3.768186931e-01  
                   4.029200000e-09  5.163496080e-01  4.034000000e-09  
                   6.401923789e-01  4.038800000e-09  7.514416244e-01  
                   4.043600000e-09  8.525815239e-01  4.048400000e-09  
                   9.456062310e-01  4.053200000e-09  1.032116536e+00  
                   4.058000000e-09  1.113397459e+00  4.062800000e-09  
                   1.190480541e+00  4.067600000e-09  1.200000000e+00  
                   4.072400000e-09  1.200000000e+00  2.805060632e-12  
                   4.032442842e-09  3.819484107e-11    failed         
                   4.022084169e-09  4.046059572e-09  4.059656553e-09  
                     failed           failed         4.010480000e-09  
                   4.046059572e-09 -3.365035739e-14 -2.327671608e-14  
                  -1.037364132e-14  3.764022080e-14  3.918639070e-14  
                   3.457880439e-14  2.400000000e-11  2.397540280e-11  
                   1.000000000e+00  1.000000000e+00  1.000000000e+00  
                  -7.705508813e-08  3.710867672e-08  9.544910674e-08  
                  -5.550269533e-08    failed           failed         
                     failed           failed           failed         
                     failed           failed           failed         
                   2.400000000e-14  2.500000000e+01 1                 
 32                3.200000000e+01  4.010000000e-09  5.000000000e-12  
                   2.400000000e-11  2.100000000e-14  0.000000000e+00  
                   1.200000000e+00  4.000000000e-07  1.200000000e+00  
                   0.000000000e+00  0.000000000e+00  4.000000000e-09  
                   0.000000000e+00  4.010000000e-09  0.000000000e+00  
                   4.014800000e-09  6.000000000e-02  4.019600000e-09  
                   2.177445717e-01  4.024400000e-09  3.768186931e-01  
                   4.029200000e-09  5.163496080e-01  4.034000000e-09  
                   6.401923789e-01  4.038800000e-09  7.514416244e-01  
                   4.043600000e-09  8.525815239e-01  4.048400000e-09  
                   9.456062310e-01  4.053200000e-09  1.032116536e+00  
                   4.058000000e-09  1.113397459e+00  4.062800000e-09  
                   1.190480541e+00  4.067600000e-09  1.200000000e+00  
                   4.072400000e-09  1.200000000e+00  3.064720732e-12  
                   4.032444772e-09  3.940741707e-11    failed         
                   4.022084432e-09  4.046050194e-09  4.059656553e-09  
                     failed           failed         4.010480000e-09  
                   4.046050194e-09 -3.573611907e-14 -2.469387676e-14  
                  -1.104224230e-14  3.997328755e-14  4.157218311e-14  
                   3.680747434e-14  2.400000000e-11  2.396576208e-11  
                   1.000000000e+00  1.000000000e+00  1.000000000e+00  
                  -7.705508813e-08  3.710867672e-08  9.544910674e-08  
                  -5.550269533e-08    failed           failed         
                     failed           failed           failed         
                     failed           failed           failed         
                   2.400000000e-14  2.500000000e+01 1                 
 33                3.300000000e+01  4.010000000e-09  5.000000000e-12  
                   2.400000000e-11  2.400000000e-14  0.000000000e+00  
                   1.200000000e+00  4.000000000e-07  1.200000000e+00  
                   0.000000000e+00  0.000000000e+00  4.000000000e-09  
                   0.000000000e+00  4.010000000e-09  0.000000000e+00  
                   4.014800000e-09  6.000000000e-02  4.019600000e-09  
                   2.177445717e-01  4.024400000e-09  3.768186931e-01  
                   4.029200000e-09  5.163496080e-01  4.034000000e-09  
                   6.401923789e-01  4.038800000e-09  7.514416244e-01  
                   4.043600000e-09  8.525815239e-01  4.048400000e-09  
                   9.456062310e-01  4.053200000e-09  1.032116536e+00  
                   4.058000000e-09  1.113397459e+00  4.062800000e-09  
                   1.190480541e+00  4.067600000e-09  1.200000000e+00  
                   4.072400000e-09  1.200000000e+00  3.321686182e-12  
                   4.032447277e-09  4.117544541e-11    failed         
                   4.022084877e-09  4.046043641e-09  4.059656553e-09  
                     failed           failed         4.010480000e-09  
                   4.046043641e-09 -3.779454058e-14 -2.608381431e-14  
                  -1.171072627e-14  4.227577246e-14  4.391214530e-14  
                   3.903575425e-14  2.400000000e-11  2.395876374e-11  
                   1.000000000e+00  1.000000000e+00  1.000000000e+00  
                  -7.705508813e-08  3.710867672e-08  9.544910674e-08  
                  -5.550269533e-08    failed           failed         
                     failed           failed           failed         
                     failed           failed           failed         
                   2.400000000e-14  2.500000000e+01 1                 
 34                3.400000000e+01  4.010000000e-09  5.000000000e-12  
                   2.400000000e-11  2.700000000e-14  0.000000000e+00  
                   1.200000000e+00  4.000000000e-07  1.200000000e+00  
                   0.000000000e+00  0.000000000e+00  4.000000000e-09  
                   0.000000000e+00  4.010000000e-09  0.000000000e+00  
                   4.014800000e-09  6.000000000e-02  4.019600000e-09  
                   2.177445717e-01  4.024400000e-09  3.768186931e-01  
                   4.029200000e-09  5.163496080e-01  4.034000000e-09  
                   6.401923789e-01  4.038800000e-09  7.514416244e-01  
                   4.043600000e-09  8.525815239e-01  4.048400000e-09  
                   9.456062310e-01  4.053200000e-09  1.032116536e+00  
                   4.058000000e-09  1.113397459e+00  4.062800000e-09  
                   1.190480541e+00  4.067600000e-09  1.200000000e+00  
                   4.072400000e-09  1.200000000e+00  3.576612804e-12  
                   4.032448317e-09  4.292948588e-11    failed         
                   4.022085414e-09  4.046041298e-09  4.059656553e-09  
                     failed           failed         4.010480000e-09  
                   4.046041298e-09 -3.982917033e-14 -2.744428417e-14  
                  -1.238488617e-14  4.455164467e-14  4.620249859e-14  
                   4.128295390e-14  2.400000000e-11  2.395588412e-11  
                   1.000000000e+00  1.000000000e+00  1.000000000e+00  
                  -7.705508813e-08  3.710867672e-08  9.544910674e-08  
                  -5.550269533e-08    failed           failed         
                     failed           failed           failed         
                     failed           failed           failed         
                   2.400000000e-14  2.500000000e+01 1                 
 35                3.500000000e+01  4.010000000e-09  5.000000000e-12  
                   2.400000000e-11  3.000000000e-14  0.000000000e+00  
                   1.200000000e+00  4.000000000e-07  1.200000000e+00  
                   0.000000000e+00  0.000000000e+00  4.000000000e-09  
                   0.000000000e+00  4.010000000e-09  0.000000000e+00  
                   4.014800000e-09  6.000000000e-02  4.019600000e-09  
                   2.177445717e-01  4.024400000e-09  3.768186931e-01  
                   4.029200000e-09  5.163496080e-01  4.034000000e-09  
                   6.401923789e-01  4.038800000e-09  7.514416244e-01  
                   4.043600000e-09  8.525815239e-01  4.048400000e-09  
                   9.456062310e-01  4.053200000e-09  1.032116536e+00  
                   4.058000000e-09  1.113397459e+00  4.062800000e-09  
                   1.190480541e+00  4.067600000e-09  1.200000000e+00  
                   4.072400000e-09  1.200000000e+00  3.829848242e-12  
                   4.032448247e-09  4.485057883e-11    failed         
                   4.022085982e-09  4.046042028e-09  4.059656553e-09  
                     failed           failed         4.010480000e-09  
                   4.046042028e-09 -4.183655784e-14 -2.877569325e-14  
                  -1.306086459e-14  4.679704456e-14  4.844392803e-14  
                   4.353621530e-14  2.400000000e-11  2.395604668e-11  
                   1.000000000e+00  1.000000000e+00  1.000000000e+00  
                  -7.705508813e-08  3.710867672e-08  9.544910674e-08  
                  -5.550269533e-08    failed           failed         
                     failed           failed           failed         
                     failed           failed           failed         
                   2.400000000e-14  2.500000000e+01 1                 
 36                3.600000000e+01  4.010000000e-09  5.000000000e-12  
                   2.400000000e-11  3.300000000e-14  0.000000000e+00  
                   1.200000000e+00  4.000000000e-07  1.200000000e+00  
                   0.000000000e+00  0.000000000e+00  4.000000000e-09  
                   0.000000000e+00  4.010000000e-09  0.000000000e+00  
                   4.014800000e-09  6.000000000e-02  4.019600000e-09  
                   2.177445717e-01  4.024400000e-09  3.768186931e-01  
                   4.029200000e-09  5.163496080e-01  4.034000000e-09  
                   6.401923789e-01  4.038800000e-09  7.514416244e-01  
                   4.043600000e-09  8.525815239e-01  4.048400000e-09  
                   9.456062310e-01  4.053200000e-09  1.032116536e+00  
                   4.058000000e-09  1.113397459e+00  4.062800000e-09  
                   1.190480541e+00  4.067600000e-09  1.200000000e+00  
                   4.072400000e-09  1.200000000e+00  4.083671516e-12  
                   4.032447252e-09  4.685226590e-11    failed         
                   4.022086537e-09  4.046044342e-09  4.059656553e-09  
                     failed           failed         4.010480000e-09  
                   4.046044342e-09 -4.381895982e-14 -3.007835988e-14  
                  -1.374059994e-14  4.901449645e-14  5.063696950e-14  
                   4.580199981e-14  2.400000000e-11  2.395780523e-11  
                   1.000000000e+00  1.000000000e+00  1.000000000e+00  
                  -7.705508813e-08  3.710867672e-08  9.544910674e-08  
                  -5.550269533e-08    failed           failed         
                     failed           failed           failed         
                     failed           failed           failed         
                   2.400000000e-14  2.500000000e+01 1                 
 37                3.700000000e+01  4.010000000e-09  5.000000000e-12  
                   2.400000000e-11  3.600000000e-14  0.000000000e+00  
                   1.200000000e+00  4.000000000e-07  1.200000000e+00  
                   0.000000000e+00  0.000000000e+00  4.000000000e-09  
                   0.000000000e+00  4.010000000e-09  0.000000000e+00  
                   4.014800000e-09  6.000000000e-02  4.019600000e-09  
                   2.177445717e-01  4.024400000e-09  3.768186931e-01  
                   4.029200000e-09  5.163496080e-01  4.034000000e-09  
                   6.401923789e-01  4.038800000e-09  7.514416244e-01  
                   4.043600000e-09  8.525815239e-01  4.048400000e-09  
                   9.456062310e-01  4.053200000e-09  1.032116536e+00  
                   4.058000000e-09  1.113397459e+00  4.062800000e-09  
                   1.190480541e+00  4.067600000e-09  1.200000000e+00  
                   4.072400000e-09  1.200000000e+00  4.339017353e-12  
                   4.032445407e-09  4.885375367e-11    failed         
                   4.022087051e-09  4.046049134e-09  4.059656553e-09  
                     failed           failed         4.010480000e-09  
                   4.046049134e-09 -4.577796871e-14 -3.135253690e-14  
                  -1.442543181e-14  5.120578156e-14  5.278204865e-14  
                   4.808477270e-14  2.400000000e-11  2.396208353e-11  
                   1.000000000e+00  1.000000000e+00  1.000000000e+00  
                  -7.705508813e-08  3.710867672e-08  9.544910674e-08  
                  -5.550269533e-08    failed           failed         
                     failed           failed           failed         
                     failed           failed           failed         
                   2.400000000e-14  2.500000000e+01 1                 
 38                3.800000000e+01  4.010000000e-09  5.000000000e-12  
                   2.400000000e-11  4.000000000e-14  0.000000000e+00  
                   1.200000000e+00  4.000000000e-07  1.200000000e+00  
                   0.000000000e+00  0.000000000e+00  4.000000000e-09  
                   0.000000000e+00  4.010000000e-09  0.000000000e+00  
                   4.014800000e-09  6.000000000e-02  4.019600000e-09  
                   2.177445717e-01  4.024400000e-09  3.768186931e-01  
                   4.029200000e-09  5.163496080e-01  4.034000000e-09  
                   6.401923789e-01  4.038800000e-09  7.514416244e-01  
                   4.043600000e-09  8.525815239e-01  4.048400000e-09  
                   9.456062310e-01  4.053200000e-09  1.032116536e+00  
                   4.058000000e-09  1.113397459e+00  4.062800000e-09  
                   1.190480541e+00  4.067600000e-09  1.200000000e+00  
                   4.072400000e-09  1.200000000e+00  4.682152793e-12  
                   4.032442425e-09  5.145063730e-11    failed         
                   4.022087637e-09  4.046056565e-09  4.059656553e-09  
                     failed           failed         4.010480000e-09  
                   4.046056565e-09 -4.835344027e-14 -3.300867636e-14  
                  -1.534476390e-14  5.408662222e-14  5.557016223e-14  
                   5.114921301e-14  2.400000000e-11  2.396892870e-11  
                   1.000000000e+00  1.000000000e+00  1.000000000e+00  
                  -7.705508813e-08  3.710867672e-08  9.544910674e-08  
                  -5.550269533e-08    failed           failed         
                     failed           failed           failed         
                     failed           failed           failed         
                   2.400000000e-14  2.500000000e+01 1                 
 39                3.900000000e+01  4.010000000e-09  5.000000000e-12  
                   2.400000000e-11  4.200000000e-14  0.000000000e+00  
                   1.200000000e+00  4.000000000e-07  1.200000000e+00  
                   0.000000000e+00  0.000000000e+00  4.000000000e-09  
                   0.000000000e+00  4.010000000e-09  0.000000000e+00  
                   4.014800000e-09  6.000000000e-02  4.019600000e-09  
                   2.177445717e-01  4.024400000e-09  3.768186931e-01  
                   4.029200000e-09  5.163496080e-01  4.034000000e-09  
                   6.401923789e-01  4.038800000e-09  7.514416244e-01  
                   4.043600000e-09  8.525815239e-01  4.048400000e-09  
                   9.456062310e-01  4.053200000e-09  1.032116536e+00  
                   4.058000000e-09  1.113397459e+00  4.062800000e-09  
                   1.190480541e+00  4.067600000e-09  1.200000000e+00  
                   4.072400000e-09  1.200000000e+00  4.849631099e-12  
                   4.032442386e-09  5.282354733e-11    failed         
                   4.022087603e-09  4.046055481e-09  4.059656553e-09  
                     failed           failed         4.010480000e-09  
                   4.046055481e-09 -4.962590061e-14 -3.382283726e-14  
                  -1.580306335e-14  5.550995594e-14  5.694080346e-14  
                   5.267687784e-14  2.400000000e-11  2.396787843e-11  
                   1.000000000e+00  1.000000000e+00  1.000000000e+00  
                  -7.705508813e-08  3.710867672e-08  9.544910674e-08  
                  -5.550269533e-08    failed           failed         
                     failed           failed           failed         
                     failed           failed           failed         
                   2.400000000e-14  2.500000000e+01 1                 
 40                4.000000000e+01  4.010000000e-09  5.000000000e-12  
                   5.000000000e-11  6.000000000e-15  0.000000000e+00  
                   1.200000000e+00  4.000000000e-07  1.200000000e+00  
                   0.000000000e+00  0.000000000e+00  4.000000000e-09  
                   0.000000000e+00  4.010000000e-09  0.000000000e+00  
                   4.020000000e-09  6.000000000e-02  4.030000000e-09  
                   2.177445717e-01  4.040000000e-09  3.768186931e-01  
                   4.050000000e-09  5.163496080e-01  4.060000000e-09  
                   6.401923789e-01  4.070000000e-09  7.514416244e-01  
                   4.080000000e-09  8.525815239e-01  4.090000000e-09  
                   9.456062310e-01  4.100000000e-09  1.032116536e+00  
                   4.110000000e-09  1.113397459e+00  4.120000000e-09  
                   1.190480541e+00  4.130000000e-09  1.200000000e+00  
                   4.140000000e-09  1.200000000e+00  1.852187150e-12  
                   4.056686414e-09  6.235799738e-11    failed         
                   4.035191458e-09  4.085099561e-09  4.113451152e-09  
                     failed           failed         4.011000000e-09  
                   4.085099561e-09 -2.575638324e-14 -1.799398394e-14  
                  -7.762399292e-15  2.881027208e-14  3.029290226e-14  
                   2.587466431e-14  5.000000000e-11  4.990810350e-11  
                   1.000000000e+00  1.000000000e+00  1.000000000e+00  
                  -7.705508813e-08  3.710867672e-08  9.544910674e-08  
                  -5.550269533e-08    failed           failed         
                     failed           failed           failed         
                     failed           failed           failed         
                   2.400000000e-14  2.500000000e+01 1                 
 41                4.100000000e+01  4.010000000e-09  5.000000000e-12  
                   5.000000000e-11  9.000000000e-15  0.000000000e+00  
                   1.200000000e+00  4.000000000e-07  1.200000000e+00  
                   0.000000000e+00  0.000000000e+00  4.000000000e-09  
                   0.000000000e+00  4.010000000e-09  0.000000000e+00  
                   4.020000000e-09  6.000000000e-02  4.030000000e-09  
                   2.177445717e-01  4.040000000e-09  3.768186931e-01  
                   4.050000000e-09  5.163496080e-01  4.060000000e-09  
                   6.401923789e-01  4.070000000e-09  7.514416244e-01  
                   4.080000000e-09  8.525815239e-01  4.090000000e-09  
                   9.456062310e-01  4.100000000e-09  1.032116536e+00  
                   4.110000000e-09  1.113397459e+00  4.120000000e-09  
                   1.190480541e+00  4.130000000e-09  1.200000000e+00  
                   4.140000000e-09  1.200000000e+00  2.079959950e-12  
                   4.056687442e-09  6.422449821e-11    failed         
                   4.035192356e-09  4.085102243e-09  4.113451152e-09  
                     failed           failed         4.011000000e-09  
                   4.085102243e-09 -2.811162047e-14 -1.965534217e-14  
                  -8.456278304e-15  3.144476563e-14  3.308980163e-14  
                   2.818759435e-14  5.000000000e-11  4.990988769e-11  
                   1.000000000e+00  1.000000000e+00  1.000000000e+00  
                  -7.705508813e-08  3.710867672e-08  9.544910674e-08  
                  -5.550269533e-08    failed           failed         
                     failed           failed           failed         
                     failed           failed           failed         
                   2.400000000e-14  2.500000000e+01 1                 
 42                4.200000000e+01  4.010000000e-09  5.000000000e-12  
                   5.000000000e-11  1.200000000e-14  0.000000000e+00  
                   1.200000000e+00  4.000000000e-07  1.200000000e+00  
                   0.000000000e+00  0.000000000e+00  4.000000000e-09  
                   0.000000000e+00  4.010000000e-09  0.000000000e+00  
                   4.020000000e-09  6.000000000e-02  4.030000000e-09  
                   2.177445717e-01  4.040000000e-09  3.768186931e-01  
                   4.050000000e-09  5.163496080e-01  4.060000000e-09  
                   6.401923789e-01  4.070000000e-09  7.514416244e-01  
                   4.080000000e-09  8.525815239e-01  4.090000000e-09  
                   9.456062310e-01  4.100000000e-09  1.032116536e+00  
                   4.110000000e-09  1.113397459e+00  4.120000000e-09  
                   1.190480541e+00  4.130000000e-09  1.200000000e+00  
                   4.140000000e-09  1.200000000e+00  2.326865542e-12  
                   4.056691855e-09  6.595708858e-11    failed         
                   4.035192032e-09  4.085108687e-09  4.113451152e-09  
                     failed           failed         4.011000000e-09  
                   4.085108687e-09 -3.044697148e-14 -2.130532166e-14  
                  -9.141649820e-15  3.405701508e-14  3.586754489e-14  
                   3.047216607e-14  5.000000000e-11  4.991665500e-11  
                   1.000000000e+00  1.000000000e+00  1.000000000e+00  
                  -7.705508813e-08  3.710867672e-08  9.544910674e-08  
                  -5.550269533e-08    failed           failed         
                     failed           failed           failed         
                     failed           failed           failed         
                   2.400000000e-14  2.500000000e+01 1                 
 43                4.300000000e+01  4.010000000e-09  5.000000000e-12  
                   5.000000000e-11  1.500000000e-14  0.000000000e+00  
                   1.200000000e+00  4.000000000e-07  1.200000000e+00  
                   0.000000000e+00  0.000000000e+00  4.000000000e-09  
                   0.000000000e+00  4.010000000e-09  0.000000000e+00  
                   4.020000000e-09  6.000000000e-02  4.030000000e-09  
                   2.177445717e-01  4.040000000e-09  3.768186931e-01  
[...]
                   4.170000000e-09  6.000000000e-02  4.330000000e-09  
                   2.177445717e-01  4.490000000e-09  3.768186931e-01  
                   4.650000000e-09  5.163496080e-01  4.810000000e-09  
                   6.401923789e-01  4.970000000e-09  7.514416244e-01  
                   5.130000000e-09  8.525815239e-01  5.290000000e-09  
                   9.456062310e-01  5.450000000e-09  1.032116536e+00  
                   5.610000000e-09  1.113397459e+00  5.770000000e-09  
                   1.190480541e+00  5.930000000e-09  1.200000000e+00  
                   6.090000000e-09  1.200000000e+00  2.305410509e-12  
                   4.758077377e-09  8.300670741e-10    failed         
                   4.413147068e-09  5.211619613e-09  5.665218426e-09  
                     failed           failed         4.026000000e-09  
                   5.211619613e-09 -3.227313548e-14 -2.212580508e-14  
                  -1.014733040e-14  3.609970411e-14  3.724883010e-14  
                   3.382443466e-14  8.000000000e-10  7.984725446e-10  
                   1.000000000e+00  1.000000000e+00  1.000000000e+00  
                  -7.705508813e-08  3.710867672e-08  9.544910674e-08  
                  -5.550269533e-08    failed           failed         
                     failed           failed           failed         
                     failed           failed           failed         
                   2.400000000e-14  2.500000000e+01 1                 
 95                9.500000000e+01  4.010000000e-09  5.000000000e-12  
                   8.000000000e-10  1.500000000e-14  0.000000000e+00  
                   1.200000000e+00  4.000000000e-07  1.200000000e+00  
                   0.000000000e+00  0.000000000e+00  4.000000000e-09  
                   0.000000000e+00  4.010000000e-09  0.000000000e+00  
                   4.170000000e-09  6.000000000e-02  4.330000000e-09  
                   2.177445717e-01  4.490000000e-09  3.768186931e-01  
                   4.650000000e-09  5.163496080e-01  4.810000000e-09  
                   6.401923789e-01  4.970000000e-09  7.514416244e-01  
                   5.130000000e-09  8.525815239e-01  5.290000000e-09  
                   9.456062310e-01  5.450000000e-09  1.032116536e+00  
                   5.610000000e-09  1.113397459e+00  5.770000000e-09  
                   1.190480541e+00  5.930000000e-09  1.200000000e+00  
                   6.090000000e-09  1.200000000e+00  2.619106815e-12  
                   4.758286953e-09  8.338125282e-10    failed         
                   4.413508243e-09  5.211654222e-09  5.665218426e-09  
                     failed           failed         4.026000000e-09  
                   5.211654222e-09 -3.488929279e-14 -2.389773874e-14  
                  -1.099155405e-14  3.902605457e-14  4.023188340e-14  
                   3.663851349e-14  8.000000000e-10  7.981459792e-10  
                   1.000000000e+00  1.000000000e+00  1.000000000e+00  
                  -7.705508813e-08  3.710867672e-08  9.544910674e-08  
                  -5.550269533e-08    failed           failed         
                     failed           failed           failed         
                     failed           failed           failed         
                   2.400000000e-14  2.500000000e+01 1                 
 96                9.600000000e+01  4.010000000e-09  5.000000000e-12  
                   8.000000000e-10  1.800000000e-14  0.000000000e+00  
                   1.200000000e+00  4.000000000e-07  1.200000000e+00  
                   0.000000000e+00  0.000000000e+00  4.000000000e-09  
                   0.000000000e+00  4.010000000e-09  0.000000000e+00  
                   4.170000000e-09  6.000000000e-02  4.330000000e-09  
                   2.177445717e-01  4.490000000e-09  3.768186931e-01  
                   4.650000000e-09  5.163496080e-01  4.810000000e-09  
                   6.401923789e-01  4.970000000e-09  7.514416244e-01  
                   5.130000000e-09  8.525815239e-01  5.290000000e-09  
                   9.456062310e-01  5.450000000e-09  1.032116536e+00  
                   5.610000000e-09  1.113397459e+00  5.770000000e-09  
                   1.190480541e+00  5.930000000e-09  1.200000000e+00  
                   6.090000000e-09  1.200000000e+00  2.869240855e-12  
                   4.758410505e-09  8.381222312e-10    failed         
                   4.413767110e-09  5.211697543e-09  5.665218426e-09  
                     failed           failed         4.026000000e-09  
                   5.211697543e-09 -3.748962163e-14 -2.566947719e-14  
                  -1.182014444e-14  4.193469981e-14  4.321460807e-14  
                   3.940048147e-14  8.000000000e-10  7.979304333e-10  
                   1.000000000e+00  1.000000000e+00  1.000000000e+00  
                  -7.705508813e-08  3.710867672e-08  9.544910674e-08  
                  -5.550269533e-08    failed           failed         
                     failed           failed           failed         
                     failed           failed           failed         
                   2.400000000e-14  2.500000000e+01 1                 
 97                9.700000000e+01  4.010000000e-09  5.000000000e-12  
                   8.000000000e-10  2.100000000e-14  0.000000000e+00  
                   1.200000000e+00  4.000000000e-07  1.200000000e+00  
                   0.000000000e+00  0.000000000e+00  4.000000000e-09  
                   0.000000000e+00  4.010000000e-09  0.000000000e+00  
                   4.170000000e-09  6.000000000e-02  4.330000000e-09  
                   2.177445717e-01  4.490000000e-09  3.768186931e-01  
                   4.650000000e-09  5.163496080e-01  4.810000000e-09  
                   6.401923789e-01  4.970000000e-09  7.514416244e-01  
                   5.130000000e-09  8.525815239e-01  5.290000000e-09  
                   9.456062310e-01  5.450000000e-09  1.032116536e+00  
                   5.610000000e-09  1.113397459e+00  5.770000000e-09  
                   1.190480541e+00  5.930000000e-09  1.200000000e+00  
                   6.090000000e-09  1.200000000e+00  3.114299407e-12  
                   4.758453538e-09  8.418236226e-10    failed         
                   4.413960570e-09  5.211720705e-09  5.665218426e-09  
                     failed           failed         4.026000000e-09  
                   5.211720705e-09 -4.008467721e-14 -2.744032736e-14  
                  -1.264434985e-14  4.483744654e-14  4.619583730e-14  
                   4.214783282e-14  8.000000000e-10  7.977601345e-10  
                   1.000000000e+00  1.000000000e+00  1.000000000e+00  
                  -7.705508813e-08  3.710867672e-08  9.544910674e-08  
                  -5.550269533e-08    failed           failed         
                     failed           failed           failed         
                     failed           failed           failed         
                   2.400000000e-14  2.500000000e+01 1                 
 98                9.800000000e+01  4.010000000e-09  5.000000000e-12  
                   8.000000000e-10  2.400000000e-14  0.000000000e+00  
                   1.200000000e+00  4.000000000e-07  1.200000000e+00  
                   0.000000000e+00  0.000000000e+00  4.000000000e-09  
                   0.000000000e+00  4.010000000e-09  0.000000000e+00  
                   4.170000000e-09  6.000000000e-02  4.330000000e-09  
                   2.177445717e-01  4.490000000e-09  3.768186931e-01  
                   4.650000000e-09  5.163496080e-01  4.810000000e-09  
                   6.401923789e-01  4.970000000e-09  7.514416244e-01  
                   5.130000000e-09  8.525815239e-01  5.290000000e-09  
                   9.456062310e-01  5.450000000e-09  1.032116536e+00  
                   5.610000000e-09  1.113397459e+00  5.770000000e-09  
                   1.190480541e+00  5.930000000e-09  1.200000000e+00  
                   6.090000000e-09  1.200000000e+00  3.355361835e-12  
                   4.758437955e-09  8.451573520e-10    failed         
                   4.414113071e-09  5.211730371e-09  5.665218426e-09  
                     failed           failed         4.026000000e-09  
                   5.211730371e-09 -4.267680983e-14 -2.921027261e-14  
                  -1.346653722e-14  4.773692375e-14  4.917554312e-14  
                   4.488845740e-14  8.000000000e-10  7.976172999e-10  
                   1.000000000e+00  1.000000000e+00  1.000000000e+00  
                  -7.705508813e-08  3.710867672e-08  9.544910674e-08  
                  -5.550269533e-08    failed           failed         
                     failed           failed           failed         
                     failed           failed           failed         
                   2.400000000e-14  2.500000000e+01 1                 
 99                9.900000000e+01  4.010000000e-09  5.000000000e-12  
                   8.000000000e-10  2.700000000e-14  0.000000000e+00  
                   1.200000000e+00  4.000000000e-07  1.200000000e+00  
                   0.000000000e+00  0.000000000e+00  4.000000000e-09  
                   0.000000000e+00  4.010000000e-09  0.000000000e+00  
                   4.170000000e-09  6.000000000e-02  4.330000000e-09  
                   2.177445717e-01  4.490000000e-09  3.768186931e-01  
                   4.650000000e-09  5.163496080e-01  4.810000000e-09  
                   6.401923789e-01  4.970000000e-09  7.514416244e-01  
                   5.130000000e-09  8.525815239e-01  5.290000000e-09  
                   9.456062310e-01  5.450000000e-09  1.032116536e+00  
                   5.610000000e-09  1.113397459e+00  5.770000000e-09  
                   1.190480541e+00  5.930000000e-09  1.200000000e+00  
                   6.090000000e-09  1.200000000e+00  3.592248838e-12  
                   4.758368341e-09  8.480603462e-10    failed         
                   4.414240454e-09  5.211733436e-09  5.665218426e-09  
                     failed           failed         4.026000000e-09  
                   5.211733436e-09 -4.526618444e-14 -3.097927509e-14  
                  -1.428690935e-14  5.063331593e-14  5.215366177e-14  
                   4.762303116e-14  8.000000000e-10  7.974929822e-10  
                   1.000000000e+00  1.000000000e+00  1.000000000e+00  
                  -7.705508813e-08  3.710867672e-08  9.544910674e-08  
                  -5.550269533e-08    failed           failed         
                     failed           failed           failed         
                     failed           failed           failed         
                   2.400000000e-14  2.500000000e+01 1                 
 100               1.000000000e+02  4.010000000e-09  5.000000000e-12  
                   8.000000000e-10  3.000000000e-14  0.000000000e+00  
                   1.200000000e+00  4.000000000e-07  1.200000000e+00  
                   0.000000000e+00  0.000000000e+00  4.000000000e-09  
                   0.000000000e+00  4.010000000e-09  0.000000000e+00  
                   4.170000000e-09  6.000000000e-02  4.330000000e-09  
                   2.177445717e-01  4.490000000e-09  3.768186931e-01  
                   4.650000000e-09  5.163496080e-01  4.810000000e-09  
                   6.401923789e-01  4.970000000e-09  7.514416244e-01  
                   5.130000000e-09  8.525815239e-01  5.290000000e-09  
                   9.456062310e-01  5.450000000e-09  1.032116536e+00  
                   5.610000000e-09  1.113397459e+00  5.770000000e-09  
                   1.190480541e+00  5.930000000e-09  1.200000000e+00  
                   6.090000000e-09  1.200000000e+00  3.821833802e-12  
                   4.758230231e-09  8.507588738e-10    failed         
                   4.414352577e-09  5.211716210e-09  5.665218426e-09  
                     failed           failed         4.026000000e-09  
                   5.211716210e-09 -4.785399209e-14 -3.274726742e-14  
                  -1.510672467e-14  5.352795536e-14  5.513007983e-14  
                   5.035574889e-14  8.000000000e-10  7.973636336e-10  
                   1.000000000e+00  1.000000000e+00  1.000000000e+00  
                  -7.705508813e-08  3.710867672e-08  9.544910674e-08  
                  -5.550269533e-08    failed           failed         
                     failed           failed           failed         
                     failed           failed           failed         
                   2.400000000e-14  2.500000000e+01 1                 
 101               1.010000000e+02  4.010000000e-09  5.000000000e-12  
                   8.000000000e-10  3.300000000e-14  0.000000000e+00  
                   1.200000000e+00  4.000000000e-07  1.200000000e+00  
                   0.000000000e+00  0.000000000e+00  4.000000000e-09  
                   0.000000000e+00  4.010000000e-09  0.000000000e+00  
                   4.170000000e-09  6.000000000e-02  4.330000000e-09  
                   2.177445717e-01  4.490000000e-09  3.768186931e-01  
                   4.650000000e-09  5.163496080e-01  4.810000000e-09  
                   6.401923789e-01  4.970000000e-09  7.514416244e-01  
                   5.130000000e-09  8.525815239e-01  5.290000000e-09  
                   9.456062310e-01  5.450000000e-09  1.032116536e+00  
                   5.610000000e-09  1.113397459e+00  5.770000000e-09  
                   1.190480541e+00  5.930000000e-09  1.200000000e+00  
                   6.090000000e-09  1.200000000e+00  4.055572756e-12  
                   4.758134432e-09  8.536624565e-10    failed         
                   4.414429705e-09  5.211697437e-09  5.665218426e-09  
                     failed           failed         4.026000000e-09  
                   5.211697437e-09 -5.043396456e-14 -3.451359434e-14  
                  -1.592037022e-14  5.641383061e-14  5.810369418e-14  
                   5.306790074e-14  8.000000000e-10  7.972677320e-10  
                   1.000000000e+00  1.000000000e+00  1.000000000e+00  
                  -7.705508813e-08  3.710867672e-08  9.544910674e-08  
                  -5.550269533e-08    failed           failed         
                     failed           failed           failed         
                     failed           failed           failed         
                   2.400000000e-14  2.500000000e+01 1                 
 102               1.020000000e+02  4.010000000e-09  5.000000000e-12  
                   8.000000000e-10  3.600000000e-14  0.000000000e+00  
                   1.200000000e+00  4.000000000e-07  1.200000000e+00  
                   0.000000000e+00  0.000000000e+00  4.000000000e-09  
                   0.000000000e+00  4.010000000e-09  0.000000000e+00  
                   4.170000000e-09  6.000000000e-02  4.330000000e-09  
                   2.177445717e-01  4.490000000e-09  3.768186931e-01  
                   4.650000000e-09  5.163496080e-01  4.810000000e-09  
                   6.401923789e-01  4.970000000e-09  7.514416244e-01  
                   5.130000000e-09  8.525815239e-01  5.290000000e-09  
                   9.456062310e-01  5.450000000e-09  1.032116536e+00  
                   5.610000000e-09  1.113397459e+00  5.770000000e-09  
                   1.190480541e+00  5.930000000e-09  1.200000000e+00  
                   6.090000000e-09  1.200000000e+00  4.293876000e-12  
                   4.758075646e-09  8.566986705e-10    failed         
                   4.414478031e-09  5.211685337e-09  5.665218426e-09  
                     failed           failed         4.026000000e-09  
                   5.211685337e-09 -5.300657041e-14 -3.627837630e-14  
                  -1.672819411e-14  5.929146578e-14  6.107470758e-14  
                   5.576064702e-14  8.000000000e-10  7.972073057e-10  
                   1.000000000e+00  1.000000000e+00  1.000000000e+00  
                  -7.705508813e-08  3.710867672e-08  9.544910674e-08  
                  -5.550269533e-08    failed           failed         
                     failed           failed           failed         
                     failed           failed           failed         
                   2.400000000e-14  2.500000000e+01 1                 
 103               1.030000000e+02  4.010000000e-09  5.000000000e-12  
                   8.000000000e-10  4.000000000e-14  0.000000000e+00  
                   1.200000000e+00  4.000000000e-07  1.200000000e+00  
                   0.000000000e+00  0.000000000e+00  4.000000000e-09  
                   0.000000000e+00  4.010000000e-09  0.000000000e+00  
                   4.170000000e-09  6.000000000e-02  4.330000000e-09  
                   2.177445717e-01  4.490000000e-09  3.768186931e-01  
                   4.650000000e-09  5.163496080e-01  4.810000000e-09  
                   6.401923789e-01  4.970000000e-09  7.514416244e-01  
                   5.130000000e-09  8.525815239e-01  5.290000000e-09  
                   9.456062310e-01  5.450000000e-09  1.032116536e+00  
                   5.610000000e-09  1.113397459e+00  5.770000000e-09  
                   1.190480541e+00  5.930000000e-09  1.200000000e+00  
                   6.090000000e-09  1.200000000e+00  4.430444982e-12  
                   4.758092145e-09  8.604782315e-10    failed         
                   4.414526725e-09  5.211632460e-09  5.665218426e-09  
                     failed           failed         4.026000000e-09  
                   5.211632460e-09 -5.643357637e-14 -3.863713716e-14  
                  -1.779643922e-14  6.312480579e-14  6.504568545e-14  
                   5.932146405e-14  8.000000000e-10  7.971057351e-10  
                   1.000000000e+00  1.000000000e+00  1.000000000e+00  
                  -7.705508813e-08  3.710867672e-08  9.544910674e-08  
                  -5.550269533e-08    failed           failed         
                     failed           failed           failed         
                     failed           failed           failed         
                   2.400000000e-14  2.500000000e+01 1                 
 104               1.040000000e+02  4.010000000e-09  5.000000000e-12  
                   8.000000000e-10  4.200000000e-14  0.000000000e+00  
                   1.200000000e+00  4.000000000e-07  1.200000000e+00  
                   0.000000000e+00  0.000000000e+00  4.000000000e-09  
                   0.000000000e+00  4.010000000e-09  0.000000000e+00  
                   4.170000000e-09  6.000000000e-02  4.330000000e-09  
                   2.177445717e-01  4.490000000e-09  3.768186931e-01  
                   4.650000000e-09  5.163496080e-01  4.810000000e-09  
                   6.401923789e-01  4.970000000e-09  7.514416244e-01  
                   5.130000000e-09  8.525815239e-01  5.290000000e-09  
                   9.456062310e-01  5.450000000e-09  1.032116536e+00  
                   5.610000000e-09  1.113397459e+00  5.770000000e-09  
                   1.190480541e+00  5.930000000e-09  1.200000000e+00  
                   6.090000000e-09  1.200000000e+00  4.524633179e-12  
                   4.758096821e-09  8.624281517e-10    failed         
                   4.414544978e-09  5.211615755e-09  5.665218426e-09  
                     failed           failed         4.026000000e-09  
                   5.211615755e-09 -5.813413482e-14 -3.981721867e-14  
                  -1.831691615e-14  6.502699645e-14  6.703235467e-14  
                   6.105638718e-14  8.000000000e-10  7.970707774e-10  
                   1.000000000e+00  1.000000000e+00  1.000000000e+00  
                  -7.705508813e-08  3.710867672e-08  9.544910674e-08  
                  -5.550269533e-08    failed           failed         
                     failed           failed           failed         
                     failed           failed           failed         
                   2.400000000e-14  2.500000000e+01 1                 
