***** HSPICE -- F-2011.09-SP1 64-BIT (Nov 18 2011) linux ******
 Input File: /home/mrezaie/Downloads/ncx_inv/lib_all/and2/tOut_B_0001r/tOut_B_00
 lic:
 lic: FLEXlm: v10.8
 lic: USER:   mrezaie              HOSTNAME: Microelectronic.lab.edu
 lic: HOSTID: ac162d8b13a0         PID:      4044
 lic: Using FLEXlm license file:
 lic: /opt/Admin/cadence.dat
 lic: Checkout 1 hspice
 lic: License/Maintenance for hspice will expire on 31-dec-2019/2019.12
 lic: NODE LOCKED license on hostid ac162d8b13a0
 lic:
 init: begin read circuit files,  cpu clock=  2.85E+00
       option brief
 init: end read circuit files,  cpu clock=  2.98E+00 memory=      1373 kb
 init: begin check errors,  cpu clock=  2.98E+00
 init: end check errors,  cpu clock=  2.99E+00 memory=      1679 kb
 init: begin setup matrix, pivot=     0 cpu clock=  2.99E+00
       establish matrix -- done,  cpu clock=  2.99E+00 memory=      1694 kb
       re-order matrix -- done,  cpu clock=  2.99E+00 memory=      1695 kb
 init: end setup matrix,  cpu clock=  2.99E+00 memory=      1713 kb
 sweep: data            data1            begin, #sweeps = 104
 data: data=stimdata        index           =    1.00E+00
 dcop: begin dcop,  cpu clock=  3.00E+00
 dcop: end dcop,  cpu clock=  3.00E+00 memory=      1713 kb  tot_iter=      10
 output: /home/mrezaie/Downloads/ncx_inv/lib_all/and2/tOut_B_0001r/tOut_B_0001r.
 sweep: tran tran1    begin, stop_t=  4.80E-08 #sweeps= 481 cpu clock=  3.00E+00
 tran: time= 4.9613E-09 tot_iter=     141 conv_iter=      60 cpu clock= 3.00E+00
 tran: time= 1.0189E-08 tot_iter=     159 conv_iter=      66 cpu clock= 3.00E+00
 tran: time= 1.4552E-08 tot_iter=     164 conv_iter=      68 cpu clock= 3.00E+00
 tran: time= 1.9352E-08 tot_iter=     168 conv_iter=      70 cpu clock= 3.00E+00
 tran: time= 2.4152E-08 tot_iter=     172 conv_iter=      72 cpu clock= 3.00E+00
 tran: time= 2.8952E-08 tot_iter=     176 conv_iter=      74 cpu clock= 3.00E+00
 tran: time= 3.3752E-08 tot_iter=     180 conv_iter=      76 cpu clock= 3.00E+00
 tran: time= 3.8552E-08 tot_iter=     184 conv_iter=      78 cpu clock= 3.00E+00
 tran: time= 4.3352E-08 tot_iter=     188 conv_iter=      80 cpu clock= 3.00E+00
 tran: time= 4.8000E-08 tot_iter=     192 conv_iter=      82 cpu clock= 3.00E+00
 sweep: tran tran1    end,  cpu clock=  3.00E+00 memory=      1714 kb
 data: data=stimdata        index           =    2.00E+00
 dcop: begin dcop,  cpu clock=  3.00E+00
 dcop: end dcop,  cpu clock=  3.00E+00 memory=      1714 kb  tot_iter=      20
 output: /home/mrezaie/Downloads/ncx_inv/lib_all/and2/tOut_B_0001r/tOut_B_0001r.
 sweep: tran tran2    begin, stop_t=  4.80E-08 #sweeps= 481 cpu clock=  3.00E+00
 tran: time= 4.9831E-09 tot_iter=     141 conv_iter=      60 cpu clock= 3.01E+00
 tran: time= 1.0292E-08 tot_iter=     159 conv_iter=      66 cpu clock= 3.01E+00
 tran: time= 1.4678E-08 tot_iter=     164 conv_iter=      68 cpu clock= 3.01E+00
 tran: time= 1.9478E-08 tot_iter=     168 conv_iter=      70 cpu clock= 3.01E+00
 tran: time= 2.4278E-08 tot_iter=     172 conv_iter=      72 cpu clock= 3.01E+00
 tran: time= 2.9078E-08 tot_iter=     176 conv_iter=      74 cpu clock= 3.01E+00
 tran: time= 3.3878E-08 tot_iter=     180 conv_iter=      76 cpu clock= 3.01E+00
 tran: time= 3.8678E-08 tot_iter=     184 conv_iter=      78 cpu clock= 3.01E+00
 tran: time= 4.3478E-08 tot_iter=     188 conv_iter=      80 cpu clock= 3.01E+00
 tran: time= 4.8000E-08 tot_iter=     192 conv_iter=      82 cpu clock= 3.01E+00
 sweep: tran tran2    end,  cpu clock=  3.01E+00 memory=      1714 kb
 data: data=stimdata        index           =    3.00E+00
 dcop: begin dcop,  cpu clock=  3.01E+00
 dcop: end dcop,  cpu clock=  3.01E+00 memory=      1714 kb  tot_iter=      30
 output: /home/mrezaie/Downloads/ncx_inv/lib_all/and2/tOut_B_0001r/tOut_B_0001r.
 sweep: tran tran3    begin, stop_t=  4.80E-08 #sweeps= 481 cpu clock=  3.01E+00
 tran: time= 4.9659E-09 tot_iter=     143 conv_iter=      60 cpu clock= 3.01E+00
 tran: time= 1.0180E-08 tot_iter=     161 conv_iter=      66 cpu clock= 3.01E+00
 tran: time= 1.4533E-08 tot_iter=     166 conv_iter=      68 cpu clock= 3.01E+00
 tran: time= 1.9333E-08 tot_iter=     170 conv_iter=      70 cpu clock= 3.01E+00
 tran: time= 2.4133E-08 tot_iter=     174 conv_iter=      72 cpu clock= 3.01E+00
 tran: time= 2.8933E-08 tot_iter=     178 conv_iter=      74 cpu clock= 3.02E+00
 tran: time= 3.3733E-08 tot_iter=     182 conv_iter=      76 cpu clock= 3.02E+00
 tran: time= 3.8533E-08 tot_iter=     186 conv_iter=      78 cpu clock= 3.02E+00
 tran: time= 4.3333E-08 tot_iter=     190 conv_iter=      80 cpu clock= 3.02E+00
 tran: time= 4.8000E-08 tot_iter=     194 conv_iter=      82 cpu clock= 3.02E+00
 sweep: tran tran3    end,  cpu clock=  3.02E+00 memory=      1714 kb
 data: data=stimdata        index           =    4.00E+00
 dcop: begin dcop,  cpu clock=  3.02E+00
 dcop: end dcop,  cpu clock=  3.02E+00 memory=      1714 kb  tot_iter=      40
 output: /home/mrezaie/Downloads/ncx_inv/lib_all/and2/tOut_B_0001r/tOut_B_0001r.
 sweep: tran tran4    begin, stop_t=  4.80E-08 #sweeps= 481 cpu clock=  3.02E+00
 tran: time= 4.9179E-09 tot_iter=     144 conv_iter=      60 cpu clock= 3.02E+00
 tran: time= 9.8887E-09 tot_iter=     162 conv_iter=      66 cpu clock= 3.02E+00
 tran: time= 1.6520E-08 tot_iter=     169 conv_iter=      69 cpu clock= 3.02E+00
 tran: time= 2.1320E-08 tot_iter=     173 conv_iter=      71 cpu clock= 3.02E+00
 tran: time= 2.6120E-08 tot_iter=     177 conv_iter=      73 cpu clock= 3.02E+00
 tran: time= 3.0920E-08 tot_iter=     181 conv_iter=      75 cpu clock= 3.02E+00
 tran: time= 3.5720E-08 tot_iter=     185 conv_iter=      77 cpu clock= 3.02E+00
 tran: time= 4.0520E-08 tot_iter=     189 conv_iter=      79 cpu clock= 3.02E+00
 tran: time= 4.5320E-08 tot_iter=     193 conv_iter=      81 cpu clock= 3.02E+00
 tran: time= 4.8000E-08 tot_iter=     197 conv_iter=      83 cpu clock= 3.02E+00
 sweep: tran tran4    end,  cpu clock=  3.02E+00 memory=      1714 kb
 data: data=stimdata        index           =    5.00E+00
 dcop: begin dcop,  cpu clock=  3.02E+00
 dcop: end dcop,  cpu clock=  3.02E+00 memory=      1714 kb  tot_iter=      50
 output: /home/mrezaie/Downloads/ncx_inv/lib_all/and2/tOut_B_0001r/tOut_B_0001r.
 sweep: tran tran5    begin, stop_t=  4.80E-08 #sweeps= 481 cpu clock=  3.02E+00
 tran: time= 4.8449E-09 tot_iter=     144 conv_iter=      60 cpu clock= 3.03E+00
 tran: time= 1.1198E-08 tot_iter=     165 conv_iter=      67 cpu clock= 3.03E+00
 tran: time= 1.5813E-08 tot_iter=     170 conv_iter=      69 cpu clock= 3.03E+00
 tran: time= 2.0613E-08 tot_iter=     174 conv_iter=      71 cpu clock= 3.03E+00
 tran: time= 2.5413E-08 tot_iter=     178 conv_iter=      73 cpu clock= 3.03E+00
 tran: time= 3.0213E-08 tot_iter=     182 conv_iter=      75 cpu clock= 3.03E+00
 tran: time= 3.5013E-08 tot_iter=     186 conv_iter=      77 cpu clock= 3.03E+00
 tran: time= 3.9813E-08 tot_iter=     190 conv_iter=      79 cpu clock= 3.03E+00
 tran: time= 4.4613E-08 tot_iter=     194 conv_iter=      81 cpu clock= 3.03E+00
 tran: time= 4.8000E-08 tot_iter=     198 conv_iter=      83 cpu clock= 3.03E+00
 sweep: tran tran5    end,  cpu clock=  3.03E+00 memory=      1714 kb
 data: data=stimdata        index           =    6.00E+00
 dcop: begin dcop,  cpu clock=  3.03E+00
 dcop: end dcop,  cpu clock=  3.03E+00 memory=      1714 kb  tot_iter=      60
 output: /home/mrezaie/Downloads/ncx_inv/lib_all/and2/tOut_B_0001r/tOut_B_0001r.
 sweep: tran tran6    begin, stop_t=  4.80E-08 #sweeps= 481 cpu clock=  3.03E+00
 tran: time= 4.8083E-09 tot_iter=     144 conv_iter=      60 cpu clock= 3.03E+00
 tran: time= 1.0904E-08 tot_iter=     165 conv_iter=      67 cpu clock= 3.03E+00
 tran: time= 1.5443E-08 tot_iter=     170 conv_iter=      69 cpu clock= 3.03E+00
 tran: time= 2.0243E-08 tot_iter=     174 conv_iter=      71 cpu clock= 3.04E+00
 tran: time= 2.5043E-08 tot_iter=     178 conv_iter=      73 cpu clock= 3.04E+00
 tran: time= 2.9843E-08 tot_iter=     182 conv_iter=      75 cpu clock= 3.04E+00
 tran: time= 3.4643E-08 tot_iter=     186 conv_iter=      77 cpu clock= 3.04E+00
 tran: time= 3.9443E-08 tot_iter=     190 conv_iter=      79 cpu clock= 3.04E+00
 tran: time= 4.4243E-08 tot_iter=     194 conv_iter=      81 cpu clock= 3.04E+00
 tran: time= 4.8000E-08 tot_iter=     198 conv_iter=      83 cpu clock= 3.04E+00
 sweep: tran tran6    end,  cpu clock=  3.04E+00 memory=      1714 kb
 data: data=stimdata        index           =    7.00E+00
 dcop: begin dcop,  cpu clock=  3.04E+00
 dcop: end dcop,  cpu clock=  3.04E+00 memory=      1714 kb  tot_iter=      70
 output: /home/mrezaie/Downloads/ncx_inv/lib_all/and2/tOut_B_0001r/tOut_B_0001r.
 sweep: tran tran7    begin, stop_t=  4.80E-08 #sweeps= 481 cpu clock=  3.04E+00
 tran: time= 5.0591E-09 tot_iter=     148 conv_iter=      61 cpu clock= 3.04E+00
 tran: time= 1.0632E-08 tot_iter=     166 conv_iter=      67 cpu clock= 3.04E+00
 tran: time= 1.5100E-08 tot_iter=     171 conv_iter=      69 cpu clock= 3.04E+00
 tran: time= 1.9900E-08 tot_iter=     175 conv_iter=      71 cpu clock= 3.04E+00
 tran: time= 2.4700E-08 tot_iter=     179 conv_iter=      73 cpu clock= 3.04E+00
 tran: time= 2.9500E-08 tot_iter=     183 conv_iter=      75 cpu clock= 3.04E+00
 tran: time= 3.4300E-08 tot_iter=     187 conv_iter=      77 cpu clock= 3.04E+00
 tran: time= 3.9100E-08 tot_iter=     191 conv_iter=      79 cpu clock= 3.04E+00
 tran: time= 4.3900E-08 tot_iter=     195 conv_iter=      81 cpu clock= 3.04E+00
 tran: time= 4.8000E-08 tot_iter=     199 conv_iter=      83 cpu clock= 3.04E+00
 sweep: tran tran7    end,  cpu clock=  3.04E+00 memory=      1714 kb
 data: data=stimdata        index           =    8.00E+00
 dcop: begin dcop,  cpu clock=  3.04E+00
 dcop: end dcop,  cpu clock=  3.04E+00 memory=      1714 kb  tot_iter=      80
 output: /home/mrezaie/Downloads/ncx_inv/lib_all/and2/tOut_B_0001r/tOut_B_0001r.
 sweep: tran tran8    begin, stop_t=  4.80E-08 #sweeps= 481 cpu clock=  3.04E+00
 tran: time= 5.0157E-09 tot_iter=     148 conv_iter=      61 cpu clock= 3.05E+00
 tran: time= 1.0382E-08 tot_iter=     166 conv_iter=      67 cpu clock= 3.05E+00
 tran: time= 1.4782E-08 tot_iter=     171 conv_iter=      69 cpu clock= 3.05E+00
 tran: time= 1.9582E-08 tot_iter=     175 conv_iter=      71 cpu clock= 3.05E+00
 tran: time= 2.4382E-08 tot_iter=     179 conv_iter=      73 cpu clock= 3.05E+00
 tran: time= 2.9182E-08 tot_iter=     183 conv_iter=      75 cpu clock= 3.05E+00
 tran: time= 3.3982E-08 tot_iter=     187 conv_iter=      77 cpu clock= 3.05E+00
 tran: time= 3.8782E-08 tot_iter=     191 conv_iter=      79 cpu clock= 3.05E+00
 tran: time= 4.3582E-08 tot_iter=     195 conv_iter=      81 cpu clock= 3.05E+00
 tran: time= 4.8000E-08 tot_iter=     199 conv_iter=      83 cpu clock= 3.05E+00
 sweep: tran tran8    end,  cpu clock=  3.05E+00 memory=      1714 kb
 data: data=stimdata        index           =    9.00E+00
 dcop: begin dcop,  cpu clock=  3.05E+00
 dcop: end dcop,  cpu clock=  3.05E+00 memory=      1714 kb  tot_iter=      90
 output: /home/mrezaie/Downloads/ncx_inv/lib_all/and2/tOut_B_0001r/tOut_B_0001r.
 sweep: tran tran9    begin, stop_t=  4.80E-08 #sweeps= 481 cpu clock=  3.05E+00
 tran: time= 4.9753E-09 tot_iter=     148 conv_iter=      61 cpu clock= 3.05E+00
 tran: time= 1.0147E-08 tot_iter=     166 conv_iter=      67 cpu clock= 3.05E+00
 tran: time= 1.4485E-08 tot_iter=     171 conv_iter=      69 cpu clock= 3.05E+00
 tran: time= 1.9285E-08 tot_iter=     175 conv_iter=      71 cpu clock= 3.05E+00
 tran: time= 2.4085E-08 tot_iter=     179 conv_iter=      73 cpu clock= 3.05E+00
 tran: time= 2.8885E-08 tot_iter=     183 conv_iter=      75 cpu clock= 3.05E+00
 tran: time= 3.3685E-08 tot_iter=     187 conv_iter=      77 cpu clock= 3.06E+00
 tran: time= 3.8485E-08 tot_iter=     191 conv_iter=      79 cpu clock= 3.06E+00
 tran: time= 4.3285E-08 tot_iter=     195 conv_iter=      81 cpu clock= 3.06E+00
 tran: time= 4.8000E-08 tot_iter=     199 conv_iter=      83 cpu clock= 3.06E+00
 sweep: tran tran9    end,  cpu clock=  3.06E+00 memory=      1714 kb
 data: data=stimdata        index           =    1.00E+01
 dcop: begin dcop,  cpu clock=  3.06E+00
 dcop: end dcop,  cpu clock=  3.06E+00 memory=      1714 kb  tot_iter=     100
 output: /home/mrezaie/Downloads/ncx_inv/lib_all/and2/tOut_B_0001r/tOut_B_0001r.
 sweep: tran tran10   begin, stop_t=  4.80E-08 #sweeps= 481 cpu clock=  3.06E+00
 tran: time= 4.9376E-09 tot_iter=     148 conv_iter=      61 cpu clock= 3.06E+00
 tran: time= 9.9206E-09 tot_iter=     166 conv_iter=      67 cpu clock= 3.06E+00
 tran: time= 1.6547E-08 tot_iter=     173 conv_iter=      70 cpu clock= 3.06E+00
 tran: time= 2.1347E-08 tot_iter=     177 conv_iter=      72 cpu clock= 3.06E+00
 tran: time= 2.6147E-08 tot_iter=     181 conv_iter=      74 cpu clock= 3.06E+00
 tran: time= 3.0947E-08 tot_iter=     185 conv_iter=      76 cpu clock= 3.06E+00
 tran: time= 3.5747E-08 tot_iter=     189 conv_iter=      78 cpu clock= 3.06E+00
 tran: time= 4.0547E-08 tot_iter=     193 conv_iter=      80 cpu clock= 3.06E+00
 tran: time= 4.5347E-08 tot_iter=     197 conv_iter=      82 cpu clock= 3.06E+00
 tran: time= 4.8000E-08 tot_iter=     201 conv_iter=      84 cpu clock= 3.06E+00
 sweep: tran tran10   end,  cpu clock=  3.06E+00 memory=      1714 kb
 data: data=stimdata        index           =    1.10E+01
 dcop: begin dcop,  cpu clock=  3.06E+00
 dcop: end dcop,  cpu clock=  3.06E+00 memory=      1714 kb  tot_iter=     110
 output: /home/mrezaie/Downloads/ncx_inv/lib_all/and2/tOut_B_0001r/tOut_B_0001r.
 sweep: tran tran11   begin, stop_t=  4.80E-08 #sweeps= 481 cpu clock=  3.06E+00
 tran: time= 4.9027E-09 tot_iter=     149 conv_iter=      61 cpu clock= 3.07E+00
 tran: time= 9.7081E-09 tot_iter=     167 conv_iter=      67 cpu clock= 3.07E+00
 tran: time= 1.6205E-08 tot_iter=     174 conv_iter=      70 cpu clock= 3.07E+00
 tran: time= 2.1005E-08 tot_iter=     178 conv_iter=      72 cpu clock= 3.07E+00
 tran: time= 2.5805E-08 tot_iter=     182 conv_iter=      74 cpu clock= 3.07E+00
 tran: time= 3.0605E-08 tot_iter=     186 conv_iter=      76 cpu clock= 3.07E+00
 tran: time= 3.5405E-08 tot_iter=     190 conv_iter=      78 cpu clock= 3.07E+00
 tran: time= 4.0205E-08 tot_iter=     194 conv_iter=      80 cpu clock= 3.07E+00
 tran: time= 4.5005E-08 tot_iter=     198 conv_iter=      82 cpu clock= 3.07E+00
 tran: time= 4.8000E-08 tot_iter=     202 conv_iter=      84 cpu clock= 3.07E+00
 sweep: tran tran11   end,  cpu clock=  3.07E+00 memory=      1714 kb
 data: data=stimdata        index           =    1.20E+01
 dcop: begin dcop,  cpu clock=  3.07E+00
 dcop: end dcop,  cpu clock=  3.07E+00 memory=      1714 kb  tot_iter=     120
 output: /home/mrezaie/Downloads/ncx_inv/lib_all/and2/tOut_B_0001r/tOut_B_0001r.
 sweep: tran tran12   begin, stop_t=  4.80E-08 #sweeps= 481 cpu clock=  3.07E+00
 tran: time= 4.8595E-09 tot_iter=     149 conv_iter=      61 cpu clock= 3.07E+00
 tran: time= 1.1183E-08 tot_iter=     170 conv_iter=      68 cpu clock= 3.07E+00
 tran: time= 1.5779E-08 tot_iter=     174 conv_iter=      70 cpu clock= 3.08E+00
 tran: time= 2.0579E-08 tot_iter=     178 conv_iter=      72 cpu clock= 3.08E+00
 tran: time= 2.5379E-08 tot_iter=     182 conv_iter=      74 cpu clock= 3.08E+00
 tran: time= 3.0179E-08 tot_iter=     186 conv_iter=      76 cpu clock= 3.08E+00
 tran: time= 3.4979E-08 tot_iter=     190 conv_iter=      78 cpu clock= 3.08E+00
 tran: time= 3.9779E-08 tot_iter=     194 conv_iter=      80 cpu clock= 3.08E+00
 tran: time= 4.4579E-08 tot_iter=     198 conv_iter=      82 cpu clock= 3.08E+00
 tran: time= 4.8000E-08 tot_iter=     202 conv_iter=      84 cpu clock= 3.08E+00
 sweep: tran tran12   end,  cpu clock=  3.08E+00 memory=      1714 kb
 data: data=stimdata        index           =    1.30E+01
 dcop: begin dcop,  cpu clock=  3.08E+00
 dcop: end dcop,  cpu clock=  3.08E+00 memory=      1714 kb  tot_iter=     130
 output: /home/mrezaie/Downloads/ncx_inv/lib_all/and2/tOut_B_0001r/tOut_B_0001r.
 sweep: tran tran13   begin, stop_t=  4.80E-08 #sweeps= 481 cpu clock=  3.08E+00
 tran: time= 4.8229E-09 tot_iter=     146 conv_iter=      60 cpu clock= 3.08E+00
 tran: time= 1.0901E-08 tot_iter=     167 conv_iter=      67 cpu clock= 3.08E+00
 tran: time= 1.5425E-08 tot_iter=     171 conv_iter=      69 cpu clock= 3.08E+00
 tran: time= 2.0225E-08 tot_iter=     175 conv_iter=      71 cpu clock= 3.08E+00
 tran: time= 2.5025E-08 tot_iter=     179 conv_iter=      73 cpu clock= 3.08E+00
 tran: time= 2.9825E-08 tot_iter=     183 conv_iter=      75 cpu clock= 3.08E+00
 tran: time= 3.4625E-08 tot_iter=     187 conv_iter=      77 cpu clock= 3.08E+00
 tran: time= 3.9425E-08 tot_iter=     191 conv_iter=      79 cpu clock= 3.08E+00
 tran: time= 4.4225E-08 tot_iter=     195 conv_iter=      81 cpu clock= 3.08E+00
 tran: time= 4.8000E-08 tot_iter=     199 conv_iter=      83 cpu clock= 3.08E+00
 sweep: tran tran13   end,  cpu clock=  3.08E+00 memory=      1714 kb
 data: data=stimdata        index           =    1.40E+01
 dcop: begin dcop,  cpu clock=  3.08E+00
 dcop: end dcop,  cpu clock=  3.08E+00 memory=      1714 kb  tot_iter=     140
 output: /home/mrezaie/Downloads/ncx_inv/lib_all/and2/tOut_B_0001r/tOut_B_0001r.
 sweep: tran tran14   begin, stop_t=  4.80E-08 #sweeps= 481 cpu clock=  3.08E+00
 tran: time= 4.9959E-09 tot_iter=     131 conv_iter=      57 cpu clock= 3.09E+00
 tran: time= 1.0377E-08 tot_iter=     149 conv_iter=      63 cpu clock= 3.09E+00
 tran: time= 1.4787E-08 tot_iter=     154 conv_iter=      65 cpu clock= 3.09E+00
 tran: time= 1.9587E-08 tot_iter=     158 conv_iter=      67 cpu clock= 3.09E+00
 tran: time= 2.4387E-08 tot_iter=     162 conv_iter=      69 cpu clock= 3.09E+00
 tran: time= 2.9187E-08 tot_iter=     166 conv_iter=      71 cpu clock= 3.09E+00
 tran: time= 3.3987E-08 tot_iter=     170 conv_iter=      73 cpu clock= 3.09E+00
 tran: time= 3.8787E-08 tot_iter=     174 conv_iter=      75 cpu clock= 3.09E+00
 tran: time= 4.3587E-08 tot_iter=     178 conv_iter=      77 cpu clock= 3.09E+00
 tran: time= 4.8000E-08 tot_iter=     182 conv_iter=      79 cpu clock= 3.09E+00
 sweep: tran tran14   end,  cpu clock=  3.09E+00 memory=      1714 kb
 data: data=stimdata        index           =    1.50E+01
 dcop: begin dcop,  cpu clock=  3.09E+00
 dcop: end dcop,  cpu clock=  3.09E+00 memory=      1714 kb  tot_iter=     150
 output: /home/mrezaie/Downloads/ncx_inv/lib_all/and2/tOut_B_0001r/tOut_B_0001r.
 sweep: tran tran15   begin, stop_t=  4.80E-08 #sweeps= 481 cpu clock=  3.09E+00
 tran: time= 4.9351E-09 tot_iter=     131 conv_iter=      57 cpu clock= 3.10E+00
 tran: time= 1.0009E-08 tot_iter=     149 conv_iter=      63 cpu clock= 3.10E+00
 tran: time= 1.6720E-08 tot_iter=     157 conv_iter=      66 cpu clock= 3.10E+00
 tran: time= 2.1520E-08 tot_iter=     161 conv_iter=      68 cpu clock= 3.10E+00
 tran: time= 2.6320E-08 tot_iter=     165 conv_iter=      70 cpu clock= 3.10E+00
 tran: time= 3.1120E-08 tot_iter=     169 conv_iter=      72 cpu clock= 3.10E+00
 tran: time= 3.5920E-08 tot_iter=     173 conv_iter=      74 cpu clock= 3.10E+00
 tran: time= 4.0720E-08 tot_iter=     177 conv_iter=      76 cpu clock= 3.10E+00
 tran: time= 4.5520E-08 tot_iter=     181 conv_iter=      78 cpu clock= 3.10E+00
 tran: time= 4.8000E-08 tot_iter=     183 conv_iter=      79 cpu clock= 3.10E+00
 sweep: tran tran15   end,  cpu clock=  3.10E+00 memory=      1714 kb
 data: data=stimdata        index           =    1.60E+01
 dcop: begin dcop,  cpu clock=  3.10E+00
 dcop: end dcop,  cpu clock=  3.10E+00 memory=      1714 kb  tot_iter=     160
 output: /home/mrezaie/Downloads/ncx_inv/lib_all/and2/tOut_B_0001r/tOut_B_0001r.
 sweep: tran tran16   begin, stop_t=  4.80E-08 #sweeps= 481 cpu clock=  3.10E+00
 tran: time= 4.8897E-09 tot_iter=     132 conv_iter=      57 cpu clock= 3.10E+00
 tran: time= 9.7235E-09 tot_iter=     150 conv_iter=      63 cpu clock= 3.10E+00
 tran: time= 1.6259E-08 tot_iter=     158 conv_iter=      66 cpu clock= 3.10E+00
 tran: time= 2.1059E-08 tot_iter=     162 conv_iter=      68 cpu clock= 3.11E+00
 tran: time= 2.5859E-08 tot_iter=     166 conv_iter=      70 cpu clock= 3.11E+00
 tran: time= 3.0659E-08 tot_iter=     170 conv_iter=      72 cpu clock= 3.11E+00
 tran: time= 3.5459E-08 tot_iter=     174 conv_iter=      74 cpu clock= 3.11E+00
 tran: time= 4.0259E-08 tot_iter=     178 conv_iter=      76 cpu clock= 3.11E+00
 tran: time= 4.5059E-08 tot_iter=     182 conv_iter=      78 cpu clock= 3.11E+00
 tran: time= 4.8000E-08 tot_iter=     186 conv_iter=      80 cpu clock= 3.11E+00
 sweep: tran tran16   end,  cpu clock=  3.11E+00 memory=      1714 kb
 data: data=stimdata        index           =    1.70E+01
 dcop: begin dcop,  cpu clock=  3.11E+00
 dcop: end dcop,  cpu clock=  3.11E+00 memory=      1714 kb  tot_iter=     170
 output: /home/mrezaie/Downloads/ncx_inv/lib_all/and2/tOut_B_0001r/tOut_B_0001r.
 sweep: tran tran17   begin, stop_t=  4.80E-08 #sweeps= 481 cpu clock=  3.11E+00
 tran: time= 4.8535E-09 tot_iter=     132 conv_iter=      57 cpu clock= 3.11E+00
 tran: time= 1.1257E-08 tot_iter=     153 conv_iter=      64 cpu clock= 3.11E+00
 tran: time= 1.5886E-08 tot_iter=     158 conv_iter=      66 cpu clock= 3.11E+00
 tran: time= 2.0686E-08 tot_iter=     162 conv_iter=      68 cpu clock= 3.11E+00
 tran: time= 2.5486E-08 tot_iter=     166 conv_iter=      70 cpu clock= 3.11E+00
 tran: time= 3.0286E-08 tot_iter=     170 conv_iter=      72 cpu clock= 3.11E+00
 tran: time= 3.5086E-08 tot_iter=     174 conv_iter=      74 cpu clock= 3.11E+00
 tran: time= 3.9886E-08 tot_iter=     178 conv_iter=      76 cpu clock= 3.11E+00
 tran: time= 4.4686E-08 tot_iter=     182 conv_iter=      78 cpu clock= 3.11E+00
 tran: time= 4.8000E-08 tot_iter=     186 conv_iter=      80 cpu clock= 3.11E+00
 sweep: tran tran17   end,  cpu clock=  3.11E+00 memory=      1714 kb
 data: data=stimdata        index           =    1.80E+01
 dcop: begin dcop,  cpu clock=  3.12E+00
 dcop: end dcop,  cpu clock=  3.12E+00 memory=      1714 kb  tot_iter=     180
 output: /home/mrezaie/Downloads/ncx_inv/lib_all/and2/tOut_B_0001r/tOut_B_0001r.
 sweep: tran tran18   begin, stop_t=  4.80E-08 #sweeps= 481 cpu clock=  3.12E+00
 tran: time= 4.8242E-09 tot_iter=     132 conv_iter=      57 cpu clock= 3.12E+00
 tran: time= 1.1014E-08 tot_iter=     153 conv_iter=      64 cpu clock= 3.12E+00
 tran: time= 1.5579E-08 tot_iter=     158 conv_iter=      66 cpu clock= 3.12E+00
 tran: time= 2.0379E-08 tot_iter=     162 conv_iter=      68 cpu clock= 3.12E+00
 tran: time= 2.5179E-08 tot_iter=     166 conv_iter=      70 cpu clock= 3.12E+00
 tran: time= 2.9979E-08 tot_iter=     170 conv_iter=      72 cpu clock= 3.12E+00
 tran: time= 3.4779E-08 tot_iter=     174 conv_iter=      74 cpu clock= 3.12E+00
 tran: time= 3.9579E-08 tot_iter=     178 conv_iter=      76 cpu clock= 3.12E+00
 tran: time= 4.4379E-08 tot_iter=     182 conv_iter=      78 cpu clock= 3.12E+00
 tran: time= 4.8000E-08 tot_iter=     186 conv_iter=      80 cpu clock= 3.12E+00
 sweep: tran tran18   end,  cpu clock=  3.12E+00 memory=      1714 kb
 data: data=stimdata        index           =    1.90E+01
 dcop: begin dcop,  cpu clock=  3.12E+00
 dcop: end dcop,  cpu clock=  3.12E+00 memory=      1714 kb  tot_iter=     190
 output: /home/mrezaie/Downloads/ncx_inv/lib_all/and2/tOut_B_0001r/tOut_B_0001r.
 sweep: tran tran19   begin, stop_t=  4.80E-08 #sweeps= 481 cpu clock=  3.12E+00
 tran: time= 5.0897E-09 tot_iter=     136 conv_iter=      58 cpu clock= 3.13E+00
 tran: time= 1.0792E-08 tot_iter=     154 conv_iter=      64 cpu clock= 3.13E+00
 tran: time= 1.5298E-08 tot_iter=     159 conv_iter=      66 cpu clock= 3.13E+00
 tran: time= 2.0098E-08 tot_iter=     163 conv_iter=      68 cpu clock= 3.13E+00
 tran: time= 2.4898E-08 tot_iter=     167 conv_iter=      70 cpu clock= 3.13E+00
 tran: time= 2.9698E-08 tot_iter=     171 conv_iter=      72 cpu clock= 3.13E+00
 tran: time= 3.4498E-08 tot_iter=     175 conv_iter=      74 cpu clock= 3.13E+00
 tran: time= 3.9298E-08 tot_iter=     179 conv_iter=      76 cpu clock= 3.13E+00
 tran: time= 4.4098E-08 tot_iter=     183 conv_iter=      78 cpu clock= 3.13E+00
 tran: time= 4.8000E-08 tot_iter=     187 conv_iter=      80 cpu clock= 3.13E+00
 sweep: tran tran19   end,  cpu clock=  3.13E+00 memory=      1714 kb
 data: data=stimdata        index           =    2.00E+01
 dcop: begin dcop,  cpu clock=  3.13E+00
 dcop: end dcop,  cpu clock=  3.13E+00 memory=      1714 kb  tot_iter=     200
 output: /home/mrezaie/Downloads/ncx_inv/lib_all/and2/tOut_B_0001r/tOut_B_0001r.
 sweep: tran tran20   begin, stop_t=  4.80E-08 #sweeps= 481 cpu clock=  3.13E+00
 tran: time= 5.0552E-09 tot_iter=     136 conv_iter=      58 cpu clock= 3.13E+00
 tran: time= 1.0589E-08 tot_iter=     154 conv_iter=      64 cpu clock= 3.13E+00
 tran: time= 1.5041E-08 tot_iter=     159 conv_iter=      66 cpu clock= 3.13E+00
 tran: time= 1.9841E-08 tot_iter=     163 conv_iter=      68 cpu clock= 3.13E+00
 tran: time= 2.4641E-08 tot_iter=     167 conv_iter=      70 cpu clock= 3.13E+00
 tran: time= 2.9441E-08 tot_iter=     171 conv_iter=      72 cpu clock= 3.13E+00
 tran: time= 3.4241E-08 tot_iter=     175 conv_iter=      74 cpu clock= 3.13E+00
 tran: time= 3.9041E-08 tot_iter=     179 conv_iter=      76 cpu clock= 3.13E+00
 tran: time= 4.3841E-08 tot_iter=     183 conv_iter=      78 cpu clock= 3.13E+00
 tran: time= 4.8000E-08 tot_iter=     187 conv_iter=      80 cpu clock= 3.13E+00
 sweep: tran tran20   end,  cpu clock=  3.13E+00 memory=      1714 kb
 data: data=stimdata        index           =    2.10E+01
 dcop: begin dcop,  cpu clock=  3.14E+00
 dcop: end dcop,  cpu clock=  3.14E+00 memory=      1714 kb  tot_iter=     210
 output: /home/mrezaie/Downloads/ncx_inv/lib_all/and2/tOut_B_0001r/tOut_B_0001r.
 sweep: tran tran21   begin, stop_t=  4.80E-08 #sweeps= 481 cpu clock=  3.14E+00
 tran: time= 5.0247E-09 tot_iter=     136 conv_iter=      58 cpu clock= 3.14E+00
 tran: time= 1.0408E-08 tot_iter=     154 conv_iter=      64 cpu clock= 3.14E+00
 tran: time= 1.4812E-08 tot_iter=     159 conv_iter=      66 cpu clock= 3.14E+00
 tran: time= 1.9612E-08 tot_iter=     163 conv_iter=      68 cpu clock= 3.14E+00
 tran: time= 2.4412E-08 tot_iter=     167 conv_iter=      70 cpu clock= 3.14E+00
 tran: time= 2.9212E-08 tot_iter=     171 conv_iter=      72 cpu clock= 3.14E+00
 tran: time= 3.4012E-08 tot_iter=     175 conv_iter=      74 cpu clock= 3.14E+00
 tran: time= 3.8812E-08 tot_iter=     179 conv_iter=      76 cpu clock= 3.14E+00
 tran: time= 4.3612E-08 tot_iter=     183 conv_iter=      78 cpu clock= 3.14E+00
 tran: time= 4.8000E-08 tot_iter=     187 conv_iter=      80 cpu clock= 3.14E+00
 sweep: tran tran21   end,  cpu clock=  3.14E+00 memory=      1714 kb
 data: data=stimdata        index           =    2.20E+01
 dcop: begin dcop,  cpu clock=  3.14E+00
 dcop: end dcop,  cpu clock=  3.14E+00 memory=      1714 kb  tot_iter=     220
 output: /home/mrezaie/Downloads/ncx_inv/lib_all/and2/tOut_B_0001r/tOut_B_0001r.
 sweep: tran tran22   begin, stop_t=  4.80E-08 #sweeps= 481 cpu clock=  3.14E+00
 tran: time= 4.9974E-09 tot_iter=     136 conv_iter=      58 cpu clock= 3.15E+00
 tran: time= 1.0244E-08 tot_iter=     154 conv_iter=      64 cpu clock= 3.15E+00
 tran: time= 1.4604E-08 tot_iter=     159 conv_iter=      66 cpu clock= 3.15E+00
 tran: time= 1.9404E-08 tot_iter=     163 conv_iter=      68 cpu clock= 3.15E+00
 tran: time= 2.4204E-08 tot_iter=     167 conv_iter=      70 cpu clock= 3.15E+00
 tran: time= 2.9004E-08 tot_iter=     171 conv_iter=      72 cpu clock= 3.15E+00
 tran: time= 3.3804E-08 tot_iter=     175 conv_iter=      74 cpu clock= 3.15E+00
 tran: time= 3.8604E-08 tot_iter=     179 conv_iter=      76 cpu clock= 3.15E+00
 tran: time= 4.3404E-08 tot_iter=     183 conv_iter=      78 cpu clock= 3.15E+00
 tran: time= 4.8000E-08 tot_iter=     187 conv_iter=      80 cpu clock= 3.15E+00
 sweep: tran tran22   end,  cpu clock=  3.15E+00 memory=      1714 kb
 data: data=stimdata        index           =    2.30E+01
 dcop: begin dcop,  cpu clock=  3.15E+00
 dcop: end dcop,  cpu clock=  3.15E+00 memory=      1714 kb  tot_iter=     230
 output: /home/mrezaie/Downloads/ncx_inv/lib_all/and2/tOut_B_0001r/tOut_B_0001r.
 sweep: tran tran23   begin, stop_t=  4.80E-08 #sweeps= 481 cpu clock=  3.15E+00
 tran: time= 4.9729E-09 tot_iter=     136 conv_iter=      58 cpu clock= 3.15E+00
 tran: time= 1.0096E-08 tot_iter=     154 conv_iter=      64 cpu clock= 3.15E+00
 tran: time= 1.4416E-08 tot_iter=     159 conv_iter=      66 cpu clock= 3.15E+00
 tran: time= 1.9216E-08 tot_iter=     163 conv_iter=      68 cpu clock= 3.15E+00
 tran: time= 2.4016E-08 tot_iter=     167 conv_iter=      70 cpu clock= 3.15E+00
 tran: time= 2.8816E-08 tot_iter=     171 conv_iter=      72 cpu clock= 3.15E+00
 tran: time= 3.3616E-08 tot_iter=     175 conv_iter=      74 cpu clock= 3.15E+00
 tran: time= 3.8416E-08 tot_iter=     179 conv_iter=      76 cpu clock= 3.15E+00
 tran: time= 4.3216E-08 tot_iter=     183 conv_iter=      78 cpu clock= 3.15E+00
 tran: time= 4.8000E-08 tot_iter=     187 conv_iter=      80 cpu clock= 3.15E+00
 sweep: tran tran23   end,  cpu clock=  3.15E+00 memory=      1714 kb
 data: data=stimdata        index           =    2.40E+01
 dcop: begin dcop,  cpu clock=  3.15E+00
 dcop: end dcop,  cpu clock=  3.15E+00 memory=      1714 kb  tot_iter=     240
 output: /home/mrezaie/Downloads/ncx_inv/lib_all/and2/tOut_B_0001r/tOut_B_0001r.
 sweep: tran tran24   begin, stop_t=  4.80E-08 #sweeps= 481 cpu clock=  3.15E+00
 tran: time= 4.9502E-09 tot_iter=     136 conv_iter=      58 cpu clock= 3.16E+00
 tran: time= 9.9536E-09 tot_iter=     154 conv_iter=      64 cpu clock= 3.16E+00
 tran: time= 1.6593E-08 tot_iter=     161 conv_iter=      67 cpu clock= 3.16E+00
 tran: time= 2.1393E-08 tot_iter=     165 conv_iter=      69 cpu clock= 3.16E+00
 tran: time= 2.6193E-08 tot_iter=     169 conv_iter=      71 cpu clock= 3.16E+00
 tran: time= 3.0993E-08 tot_iter=     173 conv_iter=      73 cpu clock= 3.16E+00
 tran: time= 3.5793E-08 tot_iter=     177 conv_iter=      75 cpu clock= 3.16E+00
 tran: time= 4.0593E-08 tot_iter=     181 conv_iter=      77 cpu clock= 3.16E+00
 tran: time= 4.5393E-08 tot_iter=     185 conv_iter=      79 cpu clock= 3.16E+00
 tran: time= 4.8000E-08 tot_iter=     187 conv_iter=      80 cpu clock= 3.16E+00
 sweep: tran tran24   end,  cpu clock=  3.16E+00 memory=      1714 kb
 data: data=stimdata        index           =    2.50E+01
 dcop: begin dcop,  cpu clock=  3.16E+00
 dcop: end dcop,  cpu clock=  3.16E+00 memory=      1714 kb  tot_iter=     250
 output: /home/mrezaie/Downloads/ncx_inv/lib_all/and2/tOut_B_0001r/tOut_B_0001r.
 sweep: tran tran25   begin, stop_t=  4.80E-08 #sweeps= 481 cpu clock=  3.16E+00
 tran: time= 4.9233E-09 tot_iter=     138 conv_iter=      58 cpu clock= 3.16E+00
 tran: time= 9.7844E-09 tot_iter=     156 conv_iter=      64 cpu clock= 3.16E+00
 tran: time= 1.6319E-08 tot_iter=     163 conv_iter=      67 cpu clock= 3.16E+00
 tran: time= 2.1119E-08 tot_iter=     167 conv_iter=      69 cpu clock= 3.16E+00
 tran: time= 2.5919E-08 tot_iter=     171 conv_iter=      71 cpu clock= 3.16E+00
 tran: time= 3.0719E-08 tot_iter=     175 conv_iter=      73 cpu clock= 3.16E+00
 tran: time= 3.5519E-08 tot_iter=     179 conv_iter=      75 cpu clock= 3.16E+00
 tran: time= 4.0319E-08 tot_iter=     183 conv_iter=      77 cpu clock= 3.16E+00
 tran: time= 4.5119E-08 tot_iter=     187 conv_iter=      79 cpu clock= 3.16E+00
 tran: time= 4.8000E-08 tot_iter=     191 conv_iter=      81 cpu clock= 3.16E+00
 sweep: tran tran25   end,  cpu clock=  3.16E+00 memory=      1714 kb
 data: data=stimdata        index           =    2.60E+01
 dcop: begin dcop,  cpu clock=  3.16E+00
 dcop: end dcop,  cpu clock=  3.17E+00 memory=      1714 kb  tot_iter=     260
 output: /home/mrezaie/Downloads/ncx_inv/lib_all/and2/tOut_B_0001r/tOut_B_0001r.
 sweep: tran tran26   begin, stop_t=  4.80E-08 #sweeps= 481 cpu clock=  3.17E+00
 tran: time= 4.8729E-09 tot_iter=     138 conv_iter=      58 cpu clock= 3.17E+00
 tran: time= 1.1235E-08 tot_iter=     159 conv_iter=      65 cpu clock= 3.17E+00
 tran: time= 1.5843E-08 tot_iter=     163 conv_iter=      67 cpu clock= 3.17E+00
 tran: time= 2.0643E-08 tot_iter=     167 conv_iter=      69 cpu clock= 3.17E+00
 tran: time= 2.5443E-08 tot_iter=     171 conv_iter=      71 cpu clock= 3.17E+00
 tran: time= 3.0243E-08 tot_iter=     175 conv_iter=      73 cpu clock= 3.17E+00
 tran: time= 3.5043E-08 tot_iter=     179 conv_iter=      75 cpu clock= 3.17E+00
 tran: time= 3.9843E-08 tot_iter=     183 conv_iter=      77 cpu clock= 3.17E+00
 tran: time= 4.4643E-08 tot_iter=     187 conv_iter=      79 cpu clock= 3.17E+00
 tran: time= 4.8000E-08 tot_iter=     191 conv_iter=      81 cpu clock= 3.17E+00
 sweep: tran tran26   end,  cpu clock=  3.17E+00 memory=      1714 kb
 data: data=stimdata        index           =    2.70E+01
 dcop: begin dcop,  cpu clock=  3.17E+00
 dcop: end dcop,  cpu clock=  3.17E+00 memory=      1714 kb  tot_iter=     270
 output: /home/mrezaie/Downloads/ncx_inv/lib_all/and2/tOut_B_0001r/tOut_B_0001r.
 sweep: tran tran27   begin, stop_t=  4.80E-08 #sweeps= 481 cpu clock=  3.17E+00
 tran: time= 4.8538E-09 tot_iter=     126 conv_iter=      55 cpu clock= 3.17E+00
 tran: time= 1.1326E-08 tot_iter=     147 conv_iter=      62 cpu clock= 3.18E+00
 tran: time= 1.5986E-08 tot_iter=     152 conv_iter=      64 cpu clock= 3.18E+00
 tran: time= 2.0786E-08 tot_iter=     156 conv_iter=      66 cpu clock= 3.18E+00
 tran: time= 2.5586E-08 tot_iter=     160 conv_iter=      68 cpu clock= 3.18E+00
 tran: time= 3.0386E-08 tot_iter=     164 conv_iter=      70 cpu clock= 3.18E+00
 tran: time= 3.5186E-08 tot_iter=     168 conv_iter=      72 cpu clock= 3.18E+00
 tran: time= 3.9986E-08 tot_iter=     172 conv_iter=      74 cpu clock= 3.18E+00
 tran: time= 4.4786E-08 tot_iter=     176 conv_iter=      76 cpu clock= 3.18E+00
 tran: time= 4.8000E-08 tot_iter=     180 conv_iter=      78 cpu clock= 3.18E+00
 sweep: tran tran27   end,  cpu clock=  3.18E+00 memory=      1714 kb
 data: data=stimdata        index           =    2.80E+01
 dcop: begin dcop,  cpu clock=  3.18E+00
 dcop: end dcop,  cpu clock=  3.18E+00 memory=      1714 kb  tot_iter=     280
 output: /home/mrezaie/Downloads/ncx_inv/lib_all/and2/tOut_B_0001r/tOut_B_0001r.
 sweep: tran tran28   begin, stop_t=  4.80E-08 #sweeps= 481 cpu clock=  3.18E+00
 tran: time= 5.0760E-09 tot_iter=     125 conv_iter=      54 cpu clock= 3.18E+00
 tran: time= 1.0764E-08 tot_iter=     143 conv_iter=      60 cpu clock= 3.18E+00
 tran: time= 1.5276E-08 tot_iter=     148 conv_iter=      62 cpu clock= 3.18E+00
 tran: time= 2.0076E-08 tot_iter=     152 conv_iter=      64 cpu clock= 3.18E+00
 tran: time= 2.4876E-08 tot_iter=     156 conv_iter=      66 cpu clock= 3.18E+00
 tran: time= 2.9676E-08 tot_iter=     160 conv_iter=      68 cpu clock= 3.18E+00
 tran: time= 3.4476E-08 tot_iter=     164 conv_iter=      70 cpu clock= 3.18E+00
 tran: time= 3.9276E-08 tot_iter=     168 conv_iter=      72 cpu clock= 3.18E+00
 tran: time= 4.4076E-08 tot_iter=     172 conv_iter=      74 cpu clock= 3.18E+00
 tran: time= 4.8000E-08 tot_iter=     176 conv_iter=      76 cpu clock= 3.18E+00
 sweep: tran tran28   end,  cpu clock=  3.18E+00 memory=      1714 kb
 data: data=stimdata        index           =    2.90E+01
 dcop: begin dcop,  cpu clock=  3.18E+00
 dcop: end dcop,  cpu clock=  3.18E+00 memory=      1714 kb  tot_iter=     290
 output: /home/mrezaie/Downloads/ncx_inv/lib_all/and2/tOut_B_0001r/tOut_B_0001r.
 sweep: tran tran29   begin, stop_t=  4.80E-08 #sweeps= 481 cpu clock=  3.18E+00
 tran: time= 5.0105E-09 tot_iter=     124 conv_iter=      54 cpu clock= 3.19E+00
 tran: time= 1.0373E-08 tot_iter=     142 conv_iter=      60 cpu clock= 3.19E+00
 tran: time= 1.4780E-08 tot_iter=     147 conv_iter=      62 cpu clock= 3.19E+00
 tran: time= 1.9580E-08 tot_iter=     151 conv_iter=      64 cpu clock= 3.19E+00
 tran: time= 2.4380E-08 tot_iter=     155 conv_iter=      66 cpu clock= 3.19E+00
 tran: time= 2.9180E-08 tot_iter=     159 conv_iter=      68 cpu clock= 3.19E+00
 tran: time= 3.3980E-08 tot_iter=     163 conv_iter=      70 cpu clock= 3.19E+00
 tran: time= 3.8780E-08 tot_iter=     167 conv_iter=      72 cpu clock= 3.19E+00
 tran: time= 4.3580E-08 tot_iter=     171 conv_iter=      74 cpu clock= 3.19E+00
 tran: time= 4.8000E-08 tot_iter=     175 conv_iter=      76 cpu clock= 3.19E+00
 sweep: tran tran29   end,  cpu clock=  3.19E+00 memory=      1714 kb
 data: data=stimdata        index           =    3.00E+01
 dcop: begin dcop,  cpu clock=  3.19E+00
 dcop: end dcop,  cpu clock=  3.19E+00 memory=      1714 kb  tot_iter=     300
 output: /home/mrezaie/Downloads/ncx_inv/lib_all/and2/tOut_B_0001r/tOut_B_0001r.
 sweep: tran tran30   begin, stop_t=  4.80E-08 #sweeps= 481 cpu clock=  3.19E+00
 tran: time= 4.9564E-09 tot_iter=     125 conv_iter=      54 cpu clock= 3.19E+00
 tran: time= 1.0044E-08 tot_iter=     143 conv_iter=      60 cpu clock= 3.19E+00
 tran: time= 1.6758E-08 tot_iter=     150 conv_iter=      63 cpu clock= 3.19E+00
 tran: time= 2.1558E-08 tot_iter=     154 conv_iter=      65 cpu clock= 3.19E+00
 tran: time= 2.6358E-08 tot_iter=     158 conv_iter=      67 cpu clock= 3.19E+00
 tran: time= 3.1158E-08 tot_iter=     162 conv_iter=      69 cpu clock= 3.19E+00
 tran: time= 3.5958E-08 tot_iter=     166 conv_iter=      71 cpu clock= 3.19E+00
 tran: time= 4.0758E-08 tot_iter=     170 conv_iter=      73 cpu clock= 3.19E+00
 tran: time= 4.5558E-08 tot_iter=     174 conv_iter=      75 cpu clock= 3.19E+00
 tran: time= 4.8000E-08 tot_iter=     176 conv_iter=      76 cpu clock= 3.19E+00
 sweep: tran tran30   end,  cpu clock=  3.19E+00 memory=      1714 kb
 data: data=stimdata        index           =    3.10E+01
 dcop: begin dcop,  cpu clock=  3.19E+00
 dcop: end dcop,  cpu clock=  3.20E+00 memory=      1714 kb  tot_iter=     310
 output: /home/mrezaie/Downloads/ncx_inv/lib_all/and2/tOut_B_0001r/tOut_B_0001r.
 sweep: tran tran31   begin, stop_t=  4.80E-08 #sweeps= 481 cpu clock=  3.20E+00
 tran: time= 4.9249E-09 tot_iter=     128 conv_iter=      54 cpu clock= 3.20E+00
 tran: time= 9.8386E-09 tot_iter=     146 conv_iter=      60 cpu clock= 3.20E+00
 tran: time= 1.6426E-08 tot_iter=     153 conv_iter=      63 cpu clock= 3.20E+00
 tran: time= 2.1226E-08 tot_iter=     157 conv_iter=      65 cpu clock= 3.20E+00
 tran: time= 2.6026E-08 tot_iter=     161 conv_iter=      67 cpu clock= 3.20E+00
 tran: time= 3.0826E-08 tot_iter=     165 conv_iter=      69 cpu clock= 3.20E+00
 tran: time= 3.5626E-08 tot_iter=     169 conv_iter=      71 cpu clock= 3.20E+00
 tran: time= 4.0426E-08 tot_iter=     173 conv_iter=      73 cpu clock= 3.20E+00
 tran: time= 4.5226E-08 tot_iter=     177 conv_iter=      75 cpu clock= 3.20E+00
 tran: time= 4.8000E-08 tot_iter=     181 conv_iter=      77 cpu clock= 3.20E+00
 sweep: tran tran31   end,  cpu clock=  3.20E+00 memory=      1714 kb
 data: data=stimdata        index           =    3.20E+01
 dcop: begin dcop,  cpu clock=  3.20E+00
 dcop: end dcop,  cpu clock=  3.20E+00 memory=      1714 kb  tot_iter=     320
 output: /home/mrezaie/Downloads/ncx_inv/lib_all/and2/tOut_B_0001r/tOut_B_0001r.
 sweep: tran tran32   begin, stop_t=  4.80E-08 #sweeps= 481 cpu clock=  3.20E+00
 tran: time= 4.8983E-09 tot_iter=     129 conv_iter=      55 cpu clock= 3.20E+00
 tran: time= 9.6633E-09 tot_iter=     147 conv_iter=      61 cpu clock= 3.20E+00
 tran: time= 1.6142E-08 tot_iter=     154 conv_iter=      64 cpu clock= 3.20E+00
 tran: time= 2.0942E-08 tot_iter=     158 conv_iter=      66 cpu clock= 3.20E+00
 tran: time= 2.5742E-08 tot_iter=     162 conv_iter=      68 cpu clock= 3.21E+00
 tran: time= 3.0542E-08 tot_iter=     166 conv_iter=      70 cpu clock= 3.21E+00
 tran: time= 3.5342E-08 tot_iter=     170 conv_iter=      72 cpu clock= 3.21E+00
 tran: time= 4.0142E-08 tot_iter=     174 conv_iter=      74 cpu clock= 3.21E+00
 tran: time= 4.4942E-08 tot_iter=     178 conv_iter=      76 cpu clock= 3.21E+00
 tran: time= 4.8000E-08 tot_iter=     182 conv_iter=      78 cpu clock= 3.21E+00
 sweep: tran tran32   end,  cpu clock=  3.21E+00 memory=      1714 kb
 data: data=stimdata        index           =    3.30E+01
 dcop: begin dcop,  cpu clock=  3.21E+00
 dcop: end dcop,  cpu clock=  3.21E+00 memory=      1714 kb  tot_iter=     330
 output: /home/mrezaie/Downloads/ncx_inv/lib_all/and2/tOut_B_0001r/tOut_B_0001r.
 sweep: tran tran33   begin, stop_t=  4.80E-08 #sweeps= 481 cpu clock=  3.21E+00
 tran: time= 4.8657E-09 tot_iter=     128 conv_iter=      54 cpu clock= 3.21E+00
 tran: time= 1.1200E-08 tot_iter=     149 conv_iter=      61 cpu clock= 3.21E+00
 tran: time= 1.5806E-08 tot_iter=     154 conv_iter=      63 cpu clock= 3.21E+00
 tran: time= 2.0606E-08 tot_iter=     158 conv_iter=      65 cpu clock= 3.21E+00
 tran: time= 2.5406E-08 tot_iter=     162 conv_iter=      67 cpu clock= 3.21E+00
 tran: time= 3.0206E-08 tot_iter=     166 conv_iter=      69 cpu clock= 3.21E+00
 tran: time= 3.5006E-08 tot_iter=     170 conv_iter=      71 cpu clock= 3.21E+00
 tran: time= 3.9806E-08 tot_iter=     174 conv_iter=      73 cpu clock= 3.21E+00
 tran: time= 4.4606E-08 tot_iter=     178 conv_iter=      75 cpu clock= 3.21E+00
 tran: time= 4.8000E-08 tot_iter=     182 conv_iter=      77 cpu clock= 3.21E+00
 sweep: tran tran33   end,  cpu clock=  3.21E+00 memory=      1714 kb
 data: data=stimdata        index           =    3.40E+01
 dcop: begin dcop,  cpu clock=  3.21E+00
 dcop: end dcop,  cpu clock=  3.21E+00 memory=      1714 kb  tot_iter=     340
 output: /home/mrezaie/Downloads/ncx_inv/lib_all/and2/tOut_B_0001r/tOut_B_0001r.
 sweep: tran tran34   begin, stop_t=  4.80E-08 #sweeps= 481 cpu clock=  3.21E+00
 tran: time= 4.8472E-09 tot_iter=     128 conv_iter=      55 cpu clock= 3.22E+00
 tran: time= 1.1039E-08 tot_iter=     149 conv_iter=      62 cpu clock= 3.22E+00
 tran: time= 1.5603E-08 tot_iter=     154 conv_iter=      64 cpu clock= 3.22E+00
 tran: time= 2.0403E-08 tot_iter=     158 conv_iter=      66 cpu clock= 3.22E+00
 tran: time= 2.5203E-08 tot_iter=     162 conv_iter=      68 cpu clock= 3.22E+00
 tran: time= 3.0003E-08 tot_iter=     166 conv_iter=      70 cpu clock= 3.22E+00
 tran: time= 3.4803E-08 tot_iter=     170 conv_iter=      72 cpu clock= 3.22E+00
 tran: time= 3.9603E-08 tot_iter=     174 conv_iter=      74 cpu clock= 3.22E+00
 tran: time= 4.4403E-08 tot_iter=     178 conv_iter=      76 cpu clock= 3.22E+00
 tran: time= 4.8000E-08 tot_iter=     182 conv_iter=      78 cpu clock= 3.22E+00
 sweep: tran tran34   end,  cpu clock=  3.22E+00 memory=      1714 kb
 data: data=stimdata        index           =    3.50E+01
 dcop: begin dcop,  cpu clock=  3.22E+00
 dcop: end dcop,  cpu clock=  3.22E+00 memory=      1714 kb  tot_iter=     350
 output: /home/mrezaie/Downloads/ncx_inv/lib_all/and2/tOut_B_0001r/tOut_B_0001r.
 sweep: tran tran35   begin, stop_t=  4.80E-08 #sweeps= 481 cpu clock=  3.22E+00
 tran: time= 4.8235E-09 tot_iter=     128 conv_iter=      55 cpu clock= 3.22E+00
 tran: time= 1.0842E-08 tot_iter=     149 conv_iter=      62 cpu clock= 3.22E+00
 tran: time= 1.5353E-08 tot_iter=     154 conv_iter=      64 cpu clock= 3.22E+00
 tran: time= 2.0153E-08 tot_iter=     158 conv_iter=      66 cpu clock= 3.22E+00
 tran: time= 2.4953E-08 tot_iter=     162 conv_iter=      68 cpu clock= 3.22E+00
 tran: time= 2.9753E-08 tot_iter=     166 conv_iter=      70 cpu clock= 3.22E+00
 tran: time= 3.4553E-08 tot_iter=     170 conv_iter=      72 cpu clock= 3.22E+00
 tran: time= 3.9353E-08 tot_iter=     174 conv_iter=      74 cpu clock= 3.22E+00
 tran: time= 4.4153E-08 tot_iter=     178 conv_iter=      76 cpu clock= 3.22E+00
 tran: time= 4.8000E-08 tot_iter=     182 conv_iter=      78 cpu clock= 3.22E+00
 sweep: tran tran35   end,  cpu clock=  3.22E+00 memory=      1714 kb
 data: data=stimdata        index           =    3.60E+01
 dcop: begin dcop,  cpu clock=  3.22E+00
 dcop: end dcop,  cpu clock=  3.22E+00 memory=      1714 kb  tot_iter=     360
 output: /home/mrezaie/Downloads/ncx_inv/lib_all/and2/tOut_B_0001r/tOut_B_0001r.
 sweep: tran tran36   begin, stop_t=  4.80E-08 #sweeps= 481 cpu clock=  3.22E+00
 tran: time= 4.8037E-09 tot_iter=     127 conv_iter=      55 cpu clock= 3.23E+00
 tran: time= 1.0673E-08 tot_iter=     148 conv_iter=      62 cpu clock= 3.23E+00
 tran: time= 1.5140E-08 tot_iter=     153 conv_iter=      64 cpu clock= 3.23E+00
 tran: time= 1.9940E-08 tot_iter=     157 conv_iter=      66 cpu clock= 3.23E+00
 tran: time= 2.4740E-08 tot_iter=     161 conv_iter=      68 cpu clock= 3.23E+00
 tran: time= 2.9540E-08 tot_iter=     165 conv_iter=      70 cpu clock= 3.23E+00
 tran: time= 3.4340E-08 tot_iter=     169 conv_iter=      72 cpu clock= 3.23E+00
 tran: time= 3.9140E-08 tot_iter=     173 conv_iter=      74 cpu clock= 3.23E+00
 tran: time= 4.3940E-08 tot_iter=     177 conv_iter=      76 cpu clock= 3.23E+00
 tran: time= 4.8000E-08 tot_iter=     181 conv_iter=      78 cpu clock= 3.23E+00
 sweep: tran tran36   end,  cpu clock=  3.23E+00 memory=      1714 kb
 data: data=stimdata        index           =    3.70E+01
 dcop: begin dcop,  cpu clock=  3.23E+00
 dcop: end dcop,  cpu clock=  3.23E+00 memory=      1714 kb  tot_iter=     370
 output: /home/mrezaie/Downloads/ncx_inv/lib_all/and2/tOut_B_0001r/tOut_B_0001r.
 sweep: tran tran37   begin, stop_t=  4.80E-08 #sweeps= 481 cpu clock=  3.23E+00
 tran: time= 5.0643E-09 tot_iter=     131 conv_iter=      56 cpu clock= 3.23E+00
 tran: time= 1.0521E-08 tot_iter=     149 conv_iter=      62 cpu clock= 3.23E+00
 tran: time= 1.4946E-08 tot_iter=     154 conv_iter=      64 cpu clock= 3.23E+00
 tran: time= 1.9746E-08 tot_iter=     158 conv_iter=      66 cpu clock= 3.23E+00
 tran: time= 2.4546E-08 tot_iter=     162 conv_iter=      68 cpu clock= 3.23E+00
 tran: time= 2.9346E-08 tot_iter=     166 conv_iter=      70 cpu clock= 3.23E+00
 tran: time= 3.4146E-08 tot_iter=     170 conv_iter=      72 cpu clock= 3.23E+00
 tran: time= 3.8946E-08 tot_iter=     174 conv_iter=      74 cpu clock= 3.23E+00
 tran: time= 4.3746E-08 tot_iter=     178 conv_iter=      76 cpu clock= 3.23E+00
 tran: time= 4.8000E-08 tot_iter=     182 conv_iter=      78 cpu clock= 3.23E+00
 sweep: tran tran37   end,  cpu clock=  3.23E+00 memory=      1714 kb
 data: data=stimdata        index           =    3.80E+01
 dcop: begin dcop,  cpu clock=  3.24E+00
 dcop: end dcop,  cpu clock=  3.24E+00 memory=      1714 kb  tot_iter=     380
 output: /home/mrezaie/Downloads/ncx_inv/lib_all/and2/tOut_B_0001r/tOut_B_0001r.
 sweep: tran tran38   begin, stop_t=  4.80E-08 #sweeps= 481 cpu clock=  3.24E+00
 tran: time= 5.0326E-09 tot_iter=     131 conv_iter=      56 cpu clock= 3.24E+00
 tran: time= 1.0331E-08 tot_iter=     149 conv_iter=      62 cpu clock= 3.24E+00
 tran: time= 1.4706E-08 tot_iter=     154 conv_iter=      64 cpu clock= 3.24E+00
 tran: time= 1.9506E-08 tot_iter=     158 conv_iter=      66 cpu clock= 3.24E+00
 tran: time= 2.4306E-08 tot_iter=     162 conv_iter=      68 cpu clock= 3.24E+00
 tran: time= 2.9106E-08 tot_iter=     166 conv_iter=      70 cpu clock= 3.24E+00
 tran: time= 3.3906E-08 tot_iter=     170 conv_iter=      72 cpu clock= 3.24E+00
 tran: time= 3.8706E-08 tot_iter=     174 conv_iter=      74 cpu clock= 3.24E+00
 tran: time= 4.3506E-08 tot_iter=     178 conv_iter=      76 cpu clock= 3.24E+00
 tran: time= 4.8000E-08 tot_iter=     182 conv_iter=      78 cpu clock= 3.24E+00
 sweep: tran tran38   end,  cpu clock=  3.24E+00 memory=      1714 kb
 data: data=stimdata        index           =    3.90E+01
 dcop: begin dcop,  cpu clock=  3.24E+00
 dcop: end dcop,  cpu clock=  3.24E+00 memory=      1714 kb  tot_iter=     390
 output: /home/mrezaie/Downloads/ncx_inv/lib_all/and2/tOut_B_0001r/tOut_B_0001r.
 sweep: tran tran39   begin, stop_t=  4.80E-08 #sweeps= 481 cpu clock=  3.24E+00
 tran: time= 5.0174E-09 tot_iter=     132 conv_iter=      56 cpu clock= 3.25E+00
 tran: time= 1.0240E-08 tot_iter=     150 conv_iter=      62 cpu clock= 3.25E+00
 tran: time= 1.4591E-08 tot_iter=     155 conv_iter=      64 cpu clock= 3.25E+00
 tran: time= 1.9391E-08 tot_iter=     159 conv_iter=      66 cpu clock= 3.25E+00
 tran: time= 2.4191E-08 tot_iter=     163 conv_iter=      68 cpu clock= 3.25E+00
 tran: time= 2.8991E-08 tot_iter=     167 conv_iter=      70 cpu clock= 3.25E+00
 tran: time= 3.3791E-08 tot_iter=     171 conv_iter=      72 cpu clock= 3.25E+00
 tran: time= 3.8591E-08 tot_iter=     175 conv_iter=      74 cpu clock= 3.25E+00
 tran: time= 4.3391E-08 tot_iter=     179 conv_iter=      76 cpu clock= 3.25E+00
 tran: time= 4.8000E-08 tot_iter=     183 conv_iter=      78 cpu clock= 3.25E+00
 sweep: tran tran39   end,  cpu clock=  3.25E+00 memory=      1714 kb
 data: data=stimdata        index           =    4.00E+01
 dcop: begin dcop,  cpu clock=  3.25E+00
 dcop: end dcop,  cpu clock=  3.25E+00 memory=      1714 kb  tot_iter=     400
 output: /home/mrezaie/Downloads/ncx_inv/lib_all/and2/tOut_B_0001r/tOut_B_0001r.
 sweep: tran tran40   begin, stop_t=  4.80E-08 #sweeps= 481 cpu clock=  3.25E+00
 tran: time= 5.0256E-09 tot_iter=     118 conv_iter=      51 cpu clock= 3.25E+00
 tran: time= 1.0468E-08 tot_iter=     136 conv_iter=      57 cpu clock= 3.25E+00
 tran: time= 1.4900E-08 tot_iter=     141 conv_iter=      59 cpu clock= 3.25E+00
 tran: time= 1.9700E-08 tot_iter=     145 conv_iter=      61 cpu clock= 3.25E+00
 tran: time= 2.4500E-08 tot_iter=     149 conv_iter=      63 cpu clock= 3.25E+00
 tran: time= 2.9300E-08 tot_iter=     153 conv_iter=      65 cpu clock= 3.25E+00
 tran: time= 3.4100E-08 tot_iter=     157 conv_iter=      67 cpu clock= 3.25E+00
 tran: time= 3.8900E-08 tot_iter=     161 conv_iter=      69 cpu clock= 3.25E+00
 tran: time= 4.3700E-08 tot_iter=     165 conv_iter=      71 cpu clock= 3.25E+00
 tran: time= 4.8000E-08 tot_iter=     169 conv_iter=      73 cpu clock= 3.25E+00
 sweep: tran tran40   end,  cpu clock=  3.25E+00 memory=      1714 kb
 data: data=stimdata        index           =    4.10E+01
 dcop: begin dcop,  cpu clock=  3.25E+00
 dcop: end dcop,  cpu clock=  3.25E+00 memory=      1714 kb  tot_iter=     410
 output: /home/mrezaie/Downloads/ncx_inv/lib_all/and2/tOut_B_0001r/tOut_B_0001r.
 sweep: tran tran41   begin, stop_t=  4.80E-08 #sweeps= 481 cpu clock=  3.25E+00
 tran: time= 4.9620E-09 tot_iter=     118 conv_iter=      51 cpu clock= 3.26E+00
 tran: time= 1.0046E-08 tot_iter=     136 conv_iter=      57 cpu clock= 3.26E+00
 tran: time= 1.6760E-08 tot_iter=     144 conv_iter=      60 cpu clock= 3.26E+00
 tran: time= 2.1560E-08 tot_iter=     148 conv_iter=      62 cpu clock= 3.26E+00
 tran: time= 2.6360E-08 tot_iter=     152 conv_iter=      64 cpu clock= 3.26E+00
 tran: time= 3.1160E-08 tot_iter=     156 conv_iter=      66 cpu clock= 3.26E+00
 tran: time= 3.5960E-08 tot_iter=     160 conv_iter=      68 cpu clock= 3.26E+00
 tran: time= 4.0760E-08 tot_iter=     164 conv_iter=      70 cpu clock= 3.26E+00
 tran: time= 4.5560E-08 tot_iter=     168 conv_iter=      72 cpu clock= 3.26E+00
 tran: time= 4.8000E-08 tot_iter=     170 conv_iter=      73 cpu clock= 3.26E+00
 sweep: tran tran41   end,  cpu clock=  3.26E+00 memory=      1714 kb
 data: data=stimdata        index           =    4.20E+01
 dcop: begin dcop,  cpu clock=  3.26E+00
 dcop: end dcop,  cpu clock=  3.26E+00 memory=      1714 kb  tot_iter=     420
 output: /home/mrezaie/Downloads/ncx_inv/lib_all/and2/tOut_B_0001r/tOut_B_0001r.
 sweep: tran tran42   begin, stop_t=  4.80E-08 #sweeps= 481 cpu clock=  3.26E+00
 tran: time= 4.9154E-09 tot_iter=     118 conv_iter=      51 cpu clock= 3.26E+00
 tran: time= 9.7254E-09 tot_iter=     136 conv_iter=      57 cpu clock= 3.26E+00
 tran: time= 1.6243E-08 tot_iter=     144 conv_iter=      60 cpu clock= 3.26E+00
 tran: time= 2.1043E-08 tot_iter=     148 conv_iter=      62 cpu clock= 3.26E+00
 tran: time= 2.5843E-08 tot_iter=     152 conv_iter=      64 cpu clock= 3.26E+00
 tran: time= 3.0643E-08 tot_iter=     156 conv_iter=      66 cpu clock= 3.26E+00
 tran: time= 3.5443E-08 tot_iter=     160 conv_iter=      68 cpu clock= 3.26E+00
 tran: time= 4.0243E-08 tot_iter=     164 conv_iter=      70 cpu clock= 3.26E+00
 tran: time= 4.5043E-08 tot_iter=     168 conv_iter=      72 cpu clock= 3.26E+00
 tran: time= 4.8000E-08 tot_iter=     172 conv_iter=      74 cpu clock= 3.26E+00
 sweep: tran tran42   end,  cpu clock=  3.26E+00 memory=      1714 kb
 data: data=stimdata        index           =    4.30E+01
 dcop: begin dcop,  cpu clock=  3.26E+00
 dcop: end dcop,  cpu clock=  3.26E+00 memory=      1714 kb  tot_iter=     430
 output: /home/mrezaie/Downloads/ncx_inv/lib_all/and2/tOut_B_0001r/tOut_B_0001r.
 sweep: tran tran43   begin, stop_t=  4.80E-08 #sweeps= 481 cpu clock=  3.26E+00
 tran: time= 4.8708E-09 tot_iter=     118 conv_iter=      51 cpu clock= 3.27E+00
 tran: time= 1.1156E-08 tot_iter=     139 conv_iter=      58 cpu clock= 3.27E+00
 tran: time= 1.5750E-08 tot_iter=     144 conv_iter=      60 cpu clock= 3.27E+00
 tran: time= 2.0550E-08 tot_iter=     148 conv_iter=      62 cpu clock= 3.27E+00
 tran: time= 2.5350E-08 tot_iter=     152 conv_iter=      64 cpu clock= 3.27E+00
 tran: time= 3.0150E-08 tot_iter=     156 conv_iter=      66 cpu clock= 3.27E+00
 tran: time= 3.4950E-08 tot_iter=     160 conv_iter=      68 cpu clock= 3.27E+00
 tran: time= 3.9750E-08 tot_iter=     164 conv_iter=      70 cpu clock= 3.27E+00
 tran: time= 4.4550E-08 tot_iter=     168 conv_iter=      72 cpu clock= 3.27E+00
 tran: time= 4.8000E-08 tot_iter=     172 conv_iter=      74 cpu clock= 3.27E+00
 sweep: tran tran43   end,  cpu clock=  3.27E+00 memory=      1714 kb
 data: data=stimdata        index           =    4.40E+01
 dcop: begin dcop,  cpu clock=  3.27E+00
 dcop: end dcop,  cpu clock=  3.27E+00 memory=      1714 kb  tot_iter=     440
 output: /home/mrezaie/Downloads/ncx_inv/lib_all/and2/tOut_B_0001r/tOut_B_0001r.
 sweep: tran tran44   begin, stop_t=  4.80E-08 #sweeps= 481 cpu clock=  3.27E+00
 tran: time= 4.8341E-09 tot_iter=     119 conv_iter=      51 cpu clock= 3.27E+00
 tran: time= 1.0833E-08 tot_iter=     140 conv_iter=      58 cpu clock= 3.27E+00
 tran: time= 1.5342E-08 tot_iter=     145 conv_iter=      60 cpu clock= 3.27E+00
 tran: time= 2.0142E-08 tot_iter=     149 conv_iter=      62 cpu clock= 3.27E+00
 tran: time= 2.4942E-08 tot_iter=     153 conv_iter=      64 cpu clock= 3.27E+00
 tran: time= 2.9742E-08 tot_iter=     157 conv_iter=      66 cpu clock= 3.27E+00
 tran: time= 3.4542E-08 tot_iter=     161 conv_iter=      68 cpu clock= 3.27E+00
 tran: time= 3.9342E-08 tot_iter=     165 conv_iter=      70 cpu clock= 3.27E+00
 tran: time= 4.4142E-08 tot_iter=     169 conv_iter=      72 cpu clock= 3.27E+00
 tran: time= 4.8000E-08 tot_iter=     173 conv_iter=      74 cpu clock= 3.27E+00
 sweep: tran tran44   end,  cpu clock=  3.27E+00 memory=      1714 kb
 data: data=stimdata        index           =    4.50E+01
 dcop: begin dcop,  cpu clock=  3.27E+00
 dcop: end dcop,  cpu clock=  3.27E+00 memory=      1714 kb  tot_iter=     450
 output: /home/mrezaie/Downloads/ncx_inv/lib_all/and2/tOut_B_0001r/tOut_B_0001r.
 sweep: tran tran45   begin, stop_t=  4.80E-08 #sweeps= 481 cpu clock=  3.27E+00
 tran: time= 5.0767E-09 tot_iter=     121 conv_iter=      52 cpu clock= 3.28E+00
 tran: time= 1.0520E-08 tot_iter=     139 conv_iter=      58 cpu clock= 3.28E+00
 tran: time= 1.4947E-08 tot_iter=     144 conv_iter=      60 cpu clock= 3.28E+00
 tran: time= 1.9747E-08 tot_iter=     148 conv_iter=      62 cpu clock= 3.28E+00
 tran: time= 2.4547E-08 tot_iter=     152 conv_iter=      64 cpu clock= 3.28E+00
 tran: time= 2.9347E-08 tot_iter=     156 conv_iter=      66 cpu clock= 3.28E+00
 tran: time= 3.4147E-08 tot_iter=     160 conv_iter=      68 cpu clock= 3.28E+00
 tran: time= 3.8947E-08 tot_iter=     164 conv_iter=      70 cpu clock= 3.28E+00
 tran: time= 4.3747E-08 tot_iter=     168 conv_iter=      72 cpu clock= 3.28E+00
 tran: time= 4.8000E-08 tot_iter=     172 conv_iter=      74 cpu clock= 3.28E+00
 sweep: tran tran45   end,  cpu clock=  3.28E+00 memory=      1714 kb
 data: data=stimdata        index           =    4.60E+01
 dcop: begin dcop,  cpu clock=  3.28E+00
 dcop: end dcop,  cpu clock=  3.28E+00 memory=      1714 kb  tot_iter=     460
 output: /home/mrezaie/Downloads/ncx_inv/lib_all/and2/tOut_B_0001r/tOut_B_0001r.
 sweep: tran tran46   begin, stop_t=  4.80E-08 #sweeps= 481 cpu clock=  3.28E+00
 tran: time= 5.0067E-09 tot_iter=     124 conv_iter=      53 cpu clock= 3.28E+00
 tran: time= 1.0111E-08 tot_iter=     142 conv_iter=      59 cpu clock= 3.28E+00
 tran: time= 1.4430E-08 tot_iter=     147 conv_iter=      61 cpu clock= 3.28E+00
 tran: time= 1.9230E-08 tot_iter=     151 conv_iter=      63 cpu clock= 3.28E+00
 tran: time= 2.4030E-08 tot_iter=     155 conv_iter=      65 cpu clock= 3.28E+00
 tran: time= 2.8830E-08 tot_iter=     159 conv_iter=      67 cpu clock= 3.28E+00
 tran: time= 3.3630E-08 tot_iter=     163 conv_iter=      69 cpu clock= 3.28E+00
 tran: time= 3.8430E-08 tot_iter=     167 conv_iter=      71 cpu clock= 3.28E+00
 tran: time= 4.3230E-08 tot_iter=     171 conv_iter=      73 cpu clock= 3.29E+00
 tran: time= 4.8000E-08 tot_iter=     175 conv_iter=      75 cpu clock= 3.29E+00
 sweep: tran tran46   end,  cpu clock=  3.29E+00 memory=      1714 kb
 data: data=stimdata        index           =    4.70E+01
 dcop: begin dcop,  cpu clock=  3.29E+00
 dcop: end dcop,  cpu clock=  3.29E+00 memory=      1714 kb  tot_iter=     470
 output: /home/mrezaie/Downloads/ncx_inv/lib_all/and2/tOut_B_0001r/tOut_B_0001r.
 sweep: tran tran47   begin, stop_t=  4.80E-08 #sweeps= 481 cpu clock=  3.29E+00
 tran: time= 5.0134E-09 tot_iter=     122 conv_iter=      52 cpu clock= 3.29E+00
 tran: time= 1.0128E-08 tot_iter=     140 conv_iter=      58 cpu clock= 3.29E+00
 tran: time= 1.4449E-08 tot_iter=     145 conv_iter=      60 cpu clock= 3.29E+00
 tran: time= 1.9249E-08 tot_iter=     149 conv_iter=      62 cpu clock= 3.29E+00
 tran: time= 2.4049E-08 tot_iter=     153 conv_iter=      64 cpu clock= 3.29E+00
 tran: time= 2.8849E-08 tot_iter=     157 conv_iter=      66 cpu clock= 3.29E+00
 tran: time= 3.3649E-08 tot_iter=     161 conv_iter=      68 cpu clock= 3.29E+00
 tran: time= 3.8449E-08 tot_iter=     165 conv_iter=      70 cpu clock= 3.29E+00
 tran: time= 4.3249E-08 tot_iter=     169 conv_iter=      72 cpu clock= 3.29E+00
 tran: time= 4.8000E-08 tot_iter=     173 conv_iter=      74 cpu clock= 3.29E+00
 sweep: tran tran47   end,  cpu clock=  3.29E+00 memory=      1714 kb
 data: data=stimdata        index           =    4.80E+01
 dcop: begin dcop,  cpu clock=  3.29E+00
 dcop: end dcop,  cpu clock=  3.29E+00 memory=      1714 kb  tot_iter=     480
 output: /home/mrezaie/Downloads/ncx_inv/lib_all/and2/tOut_B_0001r/tOut_B_0001r.
 sweep: tran tran48   begin, stop_t=  4.80E-08 #sweeps= 481 cpu clock=  3.29E+00
 tran: time= 4.9734E-09 tot_iter=     120 conv_iter=      51 cpu clock= 3.30E+00
 tran: time= 9.8802E-09 tot_iter=     138 conv_iter=      57 cpu clock= 3.30E+00
 tran: time= 1.6454E-08 tot_iter=     145 conv_iter=      60 cpu clock= 3.30E+00
 tran: time= 2.1254E-08 tot_iter=     149 conv_iter=      62 cpu clock= 3.30E+00
 tran: time= 2.6054E-08 tot_iter=     153 conv_iter=      64 cpu clock= 3.30E+00
 tran: time= 3.0854E-08 tot_iter=     157 conv_iter=      66 cpu clock= 3.30E+00
 tran: time= 3.5654E-08 tot_iter=     161 conv_iter=      68 cpu clock= 3.30E+00
 tran: time= 4.0454E-08 tot_iter=     165 conv_iter=      70 cpu clock= 3.30E+00
 tran: time= 4.5254E-08 tot_iter=     169 conv_iter=      72 cpu clock= 3.30E+00
 tran: time= 4.8000E-08 tot_iter=     173 conv_iter=      74 cpu clock= 3.30E+00
 sweep: tran tran48   end,  cpu clock=  3.30E+00 memory=      1714 kb
 data: data=stimdata        index           =    4.90E+01
 dcop: begin dcop,  cpu clock=  3.30E+00
 dcop: end dcop,  cpu clock=  3.30E+00 memory=      1714 kb  tot_iter=     490
 output: /home/mrezaie/Downloads/ncx_inv/lib_all/and2/tOut_B_0001r/tOut_B_0001r.
 sweep: tran tran49   begin, stop_t=  4.80E-08 #sweeps= 481 cpu clock=  3.30E+00
 tran: time= 4.9551E-09 tot_iter=     119 conv_iter=      51 cpu clock= 3.30E+00
 tran: time= 9.7565E-09 tot_iter=     137 conv_iter=      57 cpu clock= 3.30E+00
 tran: time= 1.6253E-08 tot_iter=     144 conv_iter=      60 cpu clock= 3.30E+00
 tran: time= 2.1053E-08 tot_iter=     148 conv_iter=      62 cpu clock= 3.30E+00
 tran: time= 2.5853E-08 tot_iter=     152 conv_iter=      64 cpu clock= 3.30E+00
 tran: time= 3.0653E-08 tot_iter=     156 conv_iter=      66 cpu clock= 3.30E+00
 tran: time= 3.5453E-08 tot_iter=     160 conv_iter=      68 cpu clock= 3.30E+00
 tran: time= 4.0253E-08 tot_iter=     164 conv_iter=      70 cpu clock= 3.30E+00
 tran: time= 4.5053E-08 tot_iter=     168 conv_iter=      72 cpu clock= 3.30E+00
 tran: time= 4.8000E-08 tot_iter=     172 conv_iter=      74 cpu clock= 3.30E+00
 sweep: tran tran49   end,  cpu clock=  3.30E+00 memory=      1714 kb
 data: data=stimdata        index           =    5.00E+01
 dcop: begin dcop,  cpu clock=  3.30E+00
 dcop: end dcop,  cpu clock=  3.30E+00 memory=      1714 kb  tot_iter=     500
 output: /home/mrezaie/Downloads/ncx_inv/lib_all/and2/tOut_B_0001r/tOut_B_0001r.
 sweep: tran tran50   begin, stop_t=  4.80E-08 #sweeps= 481 cpu clock=  3.30E+00
 tran: time= 4.9309E-09 tot_iter=     119 conv_iter=      51 cpu clock= 3.31E+00
 tran: time= 9.6012E-09 tot_iter=     137 conv_iter=      57 cpu clock= 3.31E+00
 tran: time= 1.6001E-08 tot_iter=     144 conv_iter=      60 cpu clock= 3.31E+00
 tran: time= 2.0801E-08 tot_iter=     148 conv_iter=      62 cpu clock= 3.31E+00
 tran: time= 2.5601E-08 tot_iter=     152 conv_iter=      64 cpu clock= 3.31E+00
 tran: time= 3.0401E-08 tot_iter=     156 conv_iter=      66 cpu clock= 3.31E+00
 tran: time= 3.5201E-08 tot_iter=     160 conv_iter=      68 cpu clock= 3.31E+00
 tran: time= 4.0001E-08 tot_iter=     164 conv_iter=      70 cpu clock= 3.31E+00
 tran: time= 4.4801E-08 tot_iter=     168 conv_iter=      72 cpu clock= 3.31E+00
 tran: time= 4.8000E-08 tot_iter=     172 conv_iter=      74 cpu clock= 3.31E+00
 sweep: tran tran50   end,  cpu clock=  3.31E+00 memory=      1714 kb
 data: data=stimdata        index           =    5.10E+01
 dcop: begin dcop,  cpu clock=  3.31E+00
 dcop: end dcop,  cpu clock=  3.31E+00 memory=      1714 kb  tot_iter=     510
 output: /home/mrezaie/Downloads/ncx_inv/lib_all/and2/tOut_B_0001r/tOut_B_0001r.
 sweep: tran tran51   begin, stop_t=  4.80E-08 #sweeps= 481 cpu clock=  3.31E+00
 tran: time= 4.9038E-09 tot_iter=     120 conv_iter=      51 cpu clock= 3.31E+00
 tran: time= 1.1144E-08 tot_iter=     141 conv_iter=      58 cpu clock= 3.31E+00
 tran: time= 1.5715E-08 tot_iter=     145 conv_iter=      60 cpu clock= 3.31E+00
 tran: time= 2.0515E-08 tot_iter=     149 conv_iter=      62 cpu clock= 3.31E+00
 tran: time= 2.5315E-08 tot_iter=     153 conv_iter=      64 cpu clock= 3.31E+00
 tran: time= 3.0115E-08 tot_iter=     157 conv_iter=      66 cpu clock= 3.31E+00
 tran: time= 3.4915E-08 tot_iter=     161 conv_iter=      68 cpu clock= 3.31E+00
 tran: time= 3.9715E-08 tot_iter=     165 conv_iter=      70 cpu clock= 3.31E+00
 tran: time= 4.4515E-08 tot_iter=     169 conv_iter=      72 cpu clock= 3.31E+00
 tran: time= 4.8000E-08 tot_iter=     173 conv_iter=      74 cpu clock= 3.31E+00
 sweep: tran tran51   end,  cpu clock=  3.31E+00 memory=      1714 kb
 data: data=stimdata        index           =    5.20E+01
 dcop: begin dcop,  cpu clock=  3.31E+00
 dcop: end dcop,  cpu clock=  3.31E+00 memory=      1714 kb  tot_iter=     520
 output: /home/mrezaie/Downloads/ncx_inv/lib_all/and2/tOut_B_0001r/tOut_B_0001r.
 sweep: tran tran52   begin, stop_t=  4.80E-08 #sweeps= 481 cpu clock=  3.31E+00
 tran: time= 4.8920E-09 tot_iter=     120 conv_iter=      51 cpu clock= 3.32E+00
 tran: time= 1.1044E-08 tot_iter=     141 conv_iter=      58 cpu clock= 3.32E+00
 tran: time= 1.5589E-08 tot_iter=     145 conv_iter=      60 cpu clock= 3.32E+00
 tran: time= 2.0389E-08 tot_iter=     149 conv_iter=      62 cpu clock= 3.32E+00
 tran: time= 2.5189E-08 tot_iter=     153 conv_iter=      64 cpu clock= 3.32E+00
 tran: time= 2.9989E-08 tot_iter=     157 conv_iter=      66 cpu clock= 3.32E+00
 tran: time= 3.4789E-08 tot_iter=     161 conv_iter=      68 cpu clock= 3.32E+00
 tran: time= 3.9589E-08 tot_iter=     165 conv_iter=      70 cpu clock= 3.32E+00
 tran: time= 4.4389E-08 tot_iter=     169 conv_iter=      72 cpu clock= 3.32E+00
 tran: time= 4.8000E-08 tot_iter=     173 conv_iter=      74 cpu clock= 3.32E+00
 sweep: tran tran52   end,  cpu clock=  3.32E+00 memory=      1714 kb
 data: data=stimdata        index           =    5.30E+01
 dcop: begin dcop,  cpu clock=  3.32E+00
 dcop: end dcop,  cpu clock=  3.32E+00 memory=      1714 kb  tot_iter=     530
 output: /home/mrezaie/Downloads/ncx_inv/lib_all/and2/tOut_B_0001r/tOut_B_0001r.
 sweep: tran tran53   begin, stop_t=  4.80E-08 #sweeps= 481 cpu clock=  3.32E+00
 tran: time= 4.9636E-09 tot_iter=     103 conv_iter=      46 cpu clock= 3.32E+00
 tran: time= 9.8331E-09 tot_iter=     121 conv_iter=      52 cpu clock= 3.32E+00
 tran: time= 1.6409E-08 tot_iter=     129 conv_iter=      55 cpu clock= 3.32E+00
 tran: time= 2.1209E-08 tot_iter=     133 conv_iter=      57 cpu clock= 3.32E+00
 tran: time= 2.6009E-08 tot_iter=     137 conv_iter=      59 cpu clock= 3.32E+00
 tran: time= 3.0809E-08 tot_iter=     141 conv_iter=      61 cpu clock= 3.32E+00
 tran: time= 3.5609E-08 tot_iter=     145 conv_iter=      63 cpu clock= 3.32E+00
 tran: time= 4.0409E-08 tot_iter=     149 conv_iter=      65 cpu clock= 3.32E+00
 tran: time= 4.5209E-08 tot_iter=     153 conv_iter=      67 cpu clock= 3.32E+00
 tran: time= 4.8000E-08 tot_iter=     157 conv_iter=      69 cpu clock= 3.32E+00
 sweep: tran tran53   end,  cpu clock=  3.32E+00 memory=      1714 kb
 data: data=stimdata        index           =    5.40E+01
 dcop: begin dcop,  cpu clock=  3.32E+00
 dcop: end dcop,  cpu clock=  3.32E+00 memory=      1714 kb  tot_iter=     540
 output: /home/mrezaie/Downloads/ncx_inv/lib_all/and2/tOut_B_0001r/tOut_B_0001r.
 sweep: tran tran54   begin, stop_t=  4.80E-08 #sweeps= 481 cpu clock=  3.32E+00
 tran: time= 4.8860E-09 tot_iter=     114 conv_iter=      50 cpu clock= 3.33E+00
 tran: time= 1.0934E-08 tot_iter=     135 conv_iter=      57 cpu clock= 3.33E+00
 tran: time= 1.5472E-08 tot_iter=     140 conv_iter=      59 cpu clock= 3.33E+00
 tran: time= 2.0272E-08 tot_iter=     144 conv_iter=      61 cpu clock= 3.33E+00
 tran: time= 2.5072E-08 tot_iter=     148 conv_iter=      63 cpu clock= 3.33E+00
 tran: time= 2.9872E-08 tot_iter=     152 conv_iter=      65 cpu clock= 3.33E+00
 tran: time= 3.4672E-08 tot_iter=     156 conv_iter=      67 cpu clock= 3.33E+00
 tran: time= 3.9472E-08 tot_iter=     160 conv_iter=      69 cpu clock= 3.33E+00
 tran: time= 4.4272E-08 tot_iter=     164 conv_iter=      71 cpu clock= 3.33E+00
 tran: time= 4.8000E-08 tot_iter=     168 conv_iter=      73 cpu clock= 3.33E+00
 sweep: tran tran54   end,  cpu clock=  3.33E+00 memory=      1714 kb
 data: data=stimdata        index           =    5.50E+01
 dcop: begin dcop,  cpu clock=  3.33E+00
 dcop: end dcop,  cpu clock=  3.33E+00 memory=      1714 kb  tot_iter=     550
 output: /home/mrezaie/Downloads/ncx_inv/lib_all/and2/tOut_B_0001r/tOut_B_0001r.
 sweep: tran tran55   begin, stop_t=  4.80E-08 #sweeps= 481 cpu clock=  3.33E+00
 tran: time= 4.8262E-09 tot_iter=     114 conv_iter=      50 cpu clock= 3.33E+00
 tran: time= 1.0381E-08 tot_iter=     135 conv_iter=      57 cpu clock= 3.33E+00
 tran: time= 1.4770E-08 tot_iter=     140 conv_iter=      59 cpu clock= 3.33E+00
 tran: time= 1.9570E-08 tot_iter=     144 conv_iter=      61 cpu clock= 3.33E+00
 tran: time= 2.4370E-08 tot_iter=     148 conv_iter=      63 cpu clock= 3.33E+00
 tran: time= 2.9170E-08 tot_iter=     152 conv_iter=      65 cpu clock= 3.33E+00
 tran: time= 3.3970E-08 tot_iter=     156 conv_iter=      67 cpu clock= 3.33E+00
 tran: time= 3.8770E-08 tot_iter=     160 conv_iter=      69 cpu clock= 3.33E+00
 tran: time= 4.3570E-08 tot_iter=     164 conv_iter=      71 cpu clock= 3.33E+00
 tran: time= 4.8000E-08 tot_iter=     168 conv_iter=      73 cpu clock= 3.33E+00
 sweep: tran tran55   end,  cpu clock=  3.33E+00 memory=      1714 kb
 data: data=stimdata        index           =    5.60E+01
 dcop: begin dcop,  cpu clock=  3.33E+00
 dcop: end dcop,  cpu clock=  3.33E+00 memory=      1714 kb  tot_iter=     560
 output: /home/mrezaie/Downloads/ncx_inv/lib_all/and2/tOut_B_0001r/tOut_B_0001r.
 sweep: tran tran56   begin, stop_t=  4.80E-08 #sweeps= 481 cpu clock=  3.33E+00
 tran: time= 5.0213E-09 tot_iter=     117 conv_iter=      51 cpu clock= 3.34E+00
 tran: time= 1.0031E-08 tot_iter=     135 conv_iter=      57 cpu clock= 3.34E+00
 tran: time= 1.6688E-08 tot_iter=     142 conv_iter=      60 cpu clock= 3.34E+00
 tran: time= 2.1488E-08 tot_iter=     146 conv_iter=      62 cpu clock= 3.34E+00
 tran: time= 2.6288E-08 tot_iter=     150 conv_iter=      64 cpu clock= 3.34E+00
 tran: time= 3.1088E-08 tot_iter=     154 conv_iter=      66 cpu clock= 3.34E+00
 tran: time= 3.5888E-08 tot_iter=     158 conv_iter=      68 cpu clock= 3.34E+00
 tran: time= 4.0688E-08 tot_iter=     162 conv_iter=      70 cpu clock= 3.34E+00
 tran: time= 4.5488E-08 tot_iter=     166 conv_iter=      72 cpu clock= 3.34E+00
 tran: time= 4.8000E-08 tot_iter=     168 conv_iter=      73 cpu clock= 3.34E+00
 sweep: tran tran56   end,  cpu clock=  3.34E+00 memory=      1714 kb
 data: data=stimdata        index           =    5.70E+01
 dcop: begin dcop,  cpu clock=  3.34E+00
 dcop: end dcop,  cpu clock=  3.34E+00 memory=      1714 kb  tot_iter=     570
 output: /home/mrezaie/Downloads/ncx_inv/lib_all/and2/tOut_B_0001r/tOut_B_0001r.
 sweep: tran tran57   begin, stop_t=  4.80E-08 #sweeps= 481 cpu clock=  3.34E+00
 tran: time= 4.9846E-09 tot_iter=     119 conv_iter=      52 cpu clock= 3.34E+00
 tran: time= 9.7623E-09 tot_iter=     137 conv_iter=      58 cpu clock= 3.34E+00
 tran: time= 1.6251E-08 tot_iter=     145 conv_iter=      61 cpu clock= 3.34E+00
 tran: time= 2.1051E-08 tot_iter=     149 conv_iter=      63 cpu clock= 3.34E+00
 tran: time= 2.5851E-08 tot_iter=     153 conv_iter=      65 cpu clock= 3.34E+00
 tran: time= 3.0651E-08 tot_iter=     157 conv_iter=      67 cpu clock= 3.34E+00
 tran: time= 3.5451E-08 tot_iter=     161 conv_iter=      69 cpu clock= 3.34E+00
 tran: time= 4.0251E-08 tot_iter=     165 conv_iter=      71 cpu clock= 3.34E+00
 tran: time= 4.5051E-08 tot_iter=     169 conv_iter=      73 cpu clock= 3.34E+00
 tran: time= 4.8000E-08 tot_iter=     173 conv_iter=      75 cpu clock= 3.34E+00
 sweep: tran tran57   end,  cpu clock=  3.34E+00 memory=      1714 kb
 data: data=stimdata        index           =    5.80E+01
 dcop: begin dcop,  cpu clock=  3.34E+00
 dcop: end dcop,  cpu clock=  3.34E+00 memory=      1714 kb  tot_iter=     580
 output: /home/mrezaie/Downloads/ncx_inv/lib_all/and2/tOut_B_0001r/tOut_B_0001r.
 sweep: tran tran58   begin, stop_t=  4.80E-08 #sweeps= 481 cpu clock=  3.34E+00
 tran: time= 4.9563E-09 tot_iter=     106 conv_iter=      47 cpu clock= 3.35E+00
 tran: time= 1.1313E-08 tot_iter=     127 conv_iter=      54 cpu clock= 3.35E+00
 tran: time= 1.5923E-08 tot_iter=     132 conv_iter=      56 cpu clock= 3.35E+00
 tran: time= 2.0723E-08 tot_iter=     136 conv_iter=      58 cpu clock= 3.35E+00
 tran: time= 2.5523E-08 tot_iter=     140 conv_iter=      60 cpu clock= 3.35E+00
 tran: time= 3.0323E-08 tot_iter=     144 conv_iter=      62 cpu clock= 3.35E+00
 tran: time= 3.5123E-08 tot_iter=     148 conv_iter=      64 cpu clock= 3.35E+00
 tran: time= 3.9923E-08 tot_iter=     152 conv_iter=      66 cpu clock= 3.35E+00
 tran: time= 4.4723E-08 tot_iter=     156 conv_iter=      68 cpu clock= 3.35E+00
 tran: time= 4.8000E-08 tot_iter=     160 conv_iter=      70 cpu clock= 3.35E+00
 sweep: tran tran58   end,  cpu clock=  3.35E+00 memory=      1714 kb
 data: data=stimdata        index           =    5.90E+01
 dcop: begin dcop,  cpu clock=  3.35E+00
 dcop: end dcop,  cpu clock=  3.35E+00 memory=      1714 kb  tot_iter=     590
 output: /home/mrezaie/Downloads/ncx_inv/lib_all/and2/tOut_B_0001r/tOut_B_0001r.
 sweep: tran tran59   begin, stop_t=  4.80E-08 #sweeps= 481 cpu clock=  3.35E+00
 tran: time= 4.9247E-09 tot_iter=     106 conv_iter=      47 cpu clock= 3.35E+00
 tran: time= 1.1022E-08 tot_iter=     127 conv_iter=      54 cpu clock= 3.35E+00
 tran: time= 1.5556E-08 tot_iter=     132 conv_iter=      56 cpu clock= 3.35E+00
 tran: time= 2.0356E-08 tot_iter=     136 conv_iter=      58 cpu clock= 3.35E+00
 tran: time= 2.5156E-08 tot_iter=     140 conv_iter=      60 cpu clock= 3.35E+00
 tran: time= 2.9956E-08 tot_iter=     144 conv_iter=      62 cpu clock= 3.35E+00
 tran: time= 3.4756E-08 tot_iter=     148 conv_iter=      64 cpu clock= 3.35E+00
 tran: time= 3.9556E-08 tot_iter=     152 conv_iter=      66 cpu clock= 3.35E+00
 tran: time= 4.4356E-08 tot_iter=     156 conv_iter=      68 cpu clock= 3.35E+00
 tran: time= 4.8000E-08 tot_iter=     160 conv_iter=      70 cpu clock= 3.35E+00
 sweep: tran tran59   end,  cpu clock=  3.35E+00 memory=      1714 kb
 data: data=stimdata        index           =    6.00E+01
 dcop: begin dcop,  cpu clock=  3.35E+00
 dcop: end dcop,  cpu clock=  3.36E+00 memory=      1714 kb  tot_iter=     600
 output: /home/mrezaie/Downloads/ncx_inv/lib_all/and2/tOut_B_0001r/tOut_B_0001r.
 sweep: tran tran60   begin, stop_t=  4.80E-08 #sweeps= 481 cpu clock=  3.36E+00
 tran: time= 4.8999E-09 tot_iter=     106 conv_iter=      47 cpu clock= 3.36E+00
 tran: time= 1.0791E-08 tot_iter=     127 conv_iter=      54 cpu clock= 3.36E+00
 tran: time= 1.5263E-08 tot_iter=     132 conv_iter=      56 cpu clock= 3.36E+00
 tran: time= 2.0063E-08 tot_iter=     136 conv_iter=      58 cpu clock= 3.36E+00
 tran: time= 2.4863E-08 tot_iter=     140 conv_iter=      60 cpu clock= 3.36E+00
 tran: time= 2.9663E-08 tot_iter=     144 conv_iter=      62 cpu clock= 3.36E+00
 tran: time= 3.4463E-08 tot_iter=     148 conv_iter=      64 cpu clock= 3.36E+00
 tran: time= 3.9263E-08 tot_iter=     152 conv_iter=      66 cpu clock= 3.36E+00
 tran: time= 4.4063E-08 tot_iter=     156 conv_iter=      68 cpu clock= 3.36E+00
 tran: time= 4.8000E-08 tot_iter=     160 conv_iter=      70 cpu clock= 3.36E+00
 sweep: tran tran60   end,  cpu clock=  3.36E+00 memory=      1714 kb
 data: data=stimdata        index           =    6.10E+01
 dcop: begin dcop,  cpu clock=  3.36E+00
 dcop: end dcop,  cpu clock=  3.36E+00 memory=      1714 kb  tot_iter=     610
 output: /home/mrezaie/Downloads/ncx_inv/lib_all/and2/tOut_B_0001r/tOut_B_0001r.
 sweep: tran tran61   begin, stop_t=  4.80E-08 #sweeps= 481 cpu clock=  3.36E+00
 tran: time= 4.8766E-09 tot_iter=     106 conv_iter=      47 cpu clock= 3.36E+00
 tran: time= 1.0573E-08 tot_iter=     127 conv_iter=      54 cpu clock= 3.36E+00
 tran: time= 1.4986E-08 tot_iter=     132 conv_iter=      56 cpu clock= 3.36E+00
 tran: time= 1.9786E-08 tot_iter=     136 conv_iter=      58 cpu clock= 3.36E+00
 tran: time= 2.4586E-08 tot_iter=     140 conv_iter=      60 cpu clock= 3.37E+00
 tran: time= 2.9386E-08 tot_iter=     144 conv_iter=      62 cpu clock= 3.37E+00
 tran: time= 3.4186E-08 tot_iter=     148 conv_iter=      64 cpu clock= 3.37E+00
 tran: time= 3.8986E-08 tot_iter=     152 conv_iter=      66 cpu clock= 3.37E+00
 tran: time= 4.3786E-08 tot_iter=     156 conv_iter=      68 cpu clock= 3.37E+00
 tran: time= 4.8000E-08 tot_iter=     160 conv_iter=      70 cpu clock= 3.37E+00
 sweep: tran tran61   end,  cpu clock=  3.37E+00 memory=      1714 kb
 data: data=stimdata        index           =    6.20E+01
 dcop: begin dcop,  cpu clock=  3.37E+00
 dcop: end dcop,  cpu clock=  3.37E+00 memory=      1714 kb  tot_iter=     620
 output: /home/mrezaie/Downloads/ncx_inv/lib_all/and2/tOut_B_0001r/tOut_B_0001r.
 sweep: tran tran62   begin, stop_t=  4.80E-08 #sweeps= 481 cpu clock=  3.37E+00
 tran: time= 4.8572E-09 tot_iter=     107 conv_iter=      47 cpu clock= 3.37E+00
 tran: time= 1.0390E-08 tot_iter=     128 conv_iter=      54 cpu clock= 3.37E+00
 tran: time= 1.4753E-08 tot_iter=     133 conv_iter=      56 cpu clock= 3.37E+00
 tran: time= 1.9553E-08 tot_iter=     137 conv_iter=      58 cpu clock= 3.37E+00
 tran: time= 2.4353E-08 tot_iter=     141 conv_iter=      60 cpu clock= 3.37E+00
 tran: time= 2.9153E-08 tot_iter=     145 conv_iter=      62 cpu clock= 3.37E+00
 tran: time= 3.3953E-08 tot_iter=     149 conv_iter=      64 cpu clock= 3.37E+00
 tran: time= 3.8753E-08 tot_iter=     153 conv_iter=      66 cpu clock= 3.37E+00
 tran: time= 4.3553E-08 tot_iter=     157 conv_iter=      68 cpu clock= 3.37E+00
 tran: time= 4.8000E-08 tot_iter=     161 conv_iter=      70 cpu clock= 3.37E+00
 sweep: tran tran62   end,  cpu clock=  3.37E+00 memory=      1714 kb
 data: data=stimdata        index           =    6.30E+01
 dcop: begin dcop,  cpu clock=  3.37E+00
 dcop: end dcop,  cpu clock=  3.37E+00 memory=      1714 kb  tot_iter=     630
 output: /home/mrezaie/Downloads/ncx_inv/lib_all/and2/tOut_B_0001r/tOut_B_0001r.
 sweep: tran tran63   begin, stop_t=  4.80E-08 #sweeps= 481 cpu clock=  3.37E+00
 tran: time= 4.8416E-09 tot_iter=     107 conv_iter=      47 cpu clock= 3.37E+00
 tran: time= 1.0240E-08 tot_iter=     128 conv_iter=      54 cpu clock= 3.38E+00
 tran: time= 1.4563E-08 tot_iter=     133 conv_iter=      56 cpu clock= 3.38E+00
 tran: time= 1.9363E-08 tot_iter=     137 conv_iter=      58 cpu clock= 3.38E+00
 tran: time= 2.4163E-08 tot_iter=     141 conv_iter=      60 cpu clock= 3.38E+00
 tran: time= 2.8963E-08 tot_iter=     145 conv_iter=      62 cpu clock= 3.38E+00
 tran: time= 3.3763E-08 tot_iter=     149 conv_iter=      64 cpu clock= 3.38E+00
 tran: time= 3.8563E-08 tot_iter=     153 conv_iter=      66 cpu clock= 3.38E+00
 tran: time= 4.3363E-08 tot_iter=     157 conv_iter=      68 cpu clock= 3.38E+00
 tran: time= 4.8000E-08 tot_iter=     161 conv_iter=      70 cpu clock= 3.38E+00
 sweep: tran tran63   end,  cpu clock=  3.38E+00 memory=      1714 kb
 data: data=stimdata        index           =    6.40E+01
 dcop: begin dcop,  cpu clock=  3.38E+00
 dcop: end dcop,  cpu clock=  3.38E+00 memory=      1714 kb  tot_iter=     640
 output: /home/mrezaie/Downloads/ncx_inv/lib_all/and2/tOut_B_0001r/tOut_B_0001r.
 sweep: tran tran64   begin, stop_t=  4.80E-08 #sweeps= 481 cpu clock=  3.38E+00
 tran: time= 4.8239E-09 tot_iter=     108 conv_iter=      47 cpu clock= 3.38E+00
 tran: time= 1.0064E-08 tot_iter=     129 conv_iter=      54 cpu clock= 3.38E+00
 tran: time= 1.6689E-08 tot_iter=     136 conv_iter=      57 cpu clock= 3.38E+00
 tran: time= 2.1489E-08 tot_iter=     140 conv_iter=      59 cpu clock= 3.38E+00
 tran: time= 2.6289E-08 tot_iter=     144 conv_iter=      61 cpu clock= 3.38E+00
 tran: time= 3.1089E-08 tot_iter=     148 conv_iter=      63 cpu clock= 3.38E+00
 tran: time= 3.5889E-08 tot_iter=     152 conv_iter=      65 cpu clock= 3.38E+00
 tran: time= 4.0689E-08 tot_iter=     156 conv_iter=      67 cpu clock= 3.38E+00
 tran: time= 4.5489E-08 tot_iter=     160 conv_iter=      69 cpu clock= 3.38E+00
 tran: time= 4.8000E-08 tot_iter=     162 conv_iter=      70 cpu clock= 3.38E+00
 sweep: tran tran64   end,  cpu clock=  3.38E+00 memory=      1714 kb
 data: data=stimdata        index           =    6.50E+01
 dcop: begin dcop,  cpu clock=  3.38E+00
 dcop: end dcop,  cpu clock=  3.38E+00 memory=      1714 kb  tot_iter=     650
 output: /home/mrezaie/Downloads/ncx_inv/lib_all/and2/tOut_B_0001r/tOut_B_0001r.
 sweep: tran tran65   begin, stop_t=  4.80E-08 #sweeps= 481 cpu clock=  3.38E+00
 tran: time= 4.8174E-09 tot_iter=     108 conv_iter=      47 cpu clock= 3.39E+00
 tran: time= 9.9976E-09 tot_iter=     129 conv_iter=      54 cpu clock= 3.39E+00
 tran: time= 1.6580E-08 tot_iter=     136 conv_iter=      57 cpu clock= 3.39E+00
 tran: time= 2.1380E-08 tot_iter=     140 conv_iter=      59 cpu clock= 3.39E+00
 tran: time= 2.6180E-08 tot_iter=     144 conv_iter=      61 cpu clock= 3.39E+00
[...]
 tran: time= 3.9692E-08 tot_iter=     137 conv_iter=      60 cpu clock= 3.50E+00
 tran: time= 4.4492E-08 tot_iter=     141 conv_iter=      62 cpu clock= 3.50E+00
 tran: time= 4.8000E-08 tot_iter=     145 conv_iter=      64 cpu clock= 3.50E+00
 sweep: tran tran88   end,  cpu clock=  3.50E+00 memory=      1714 kb
 data: data=stimdata        index           =    8.90E+01
 dcop: begin dcop,  cpu clock=  3.50E+00
 dcop: end dcop,  cpu clock=  3.51E+00 memory=      1714 kb  tot_iter=     890
 output: /home/mrezaie/Downloads/ncx_inv/lib_all/and2/tOut_B_0001r/tOut_B_0001r.
 sweep: tran tran89   begin, stop_t=  4.80E-08 #sweeps= 481 cpu clock=  3.51E+00
 tran: time= 4.8100E-09 tot_iter=      55 conv_iter=      23 cpu clock= 3.51E+00
 tran: time= 1.1135E-08 tot_iter=     112 conv_iter=      48 cpu clock= 3.51E+00
 tran: time= 1.5545E-08 tot_iter=     117 conv_iter=      50 cpu clock= 3.51E+00
 tran: time= 2.0345E-08 tot_iter=     121 conv_iter=      52 cpu clock= 3.51E+00
 tran: time= 2.5145E-08 tot_iter=     125 conv_iter=      54 cpu clock= 3.51E+00
 tran: time= 2.9945E-08 tot_iter=     129 conv_iter=      56 cpu clock= 3.51E+00
 tran: time= 3.4745E-08 tot_iter=     133 conv_iter=      58 cpu clock= 3.51E+00
 tran: time= 3.9545E-08 tot_iter=     137 conv_iter=      60 cpu clock= 3.51E+00
 tran: time= 4.4345E-08 tot_iter=     141 conv_iter=      62 cpu clock= 3.51E+00
 tran: time= 4.8000E-08 tot_iter=     145 conv_iter=      64 cpu clock= 3.51E+00
 sweep: tran tran89   end,  cpu clock=  3.51E+00 memory=      1714 kb
 data: data=stimdata        index           =    9.00E+01
 dcop: begin dcop,  cpu clock=  3.51E+00
 dcop: end dcop,  cpu clock=  3.51E+00 memory=      1714 kb  tot_iter=     900
 output: /home/mrezaie/Downloads/ncx_inv/lib_all/and2/tOut_B_0001r/tOut_B_0001r.
 sweep: tran tran90   begin, stop_t=  4.80E-08 #sweeps= 481 cpu clock=  3.51E+00
 tran: time= 4.8100E-09 tot_iter=      55 conv_iter=      23 cpu clock= 3.51E+00
 tran: time= 1.1137E-08 tot_iter=     112 conv_iter=      48 cpu clock= 3.51E+00
 tran: time= 1.5538E-08 tot_iter=     117 conv_iter=      50 cpu clock= 3.51E+00
 tran: time= 2.0338E-08 tot_iter=     121 conv_iter=      52 cpu clock= 3.51E+00
 tran: time= 2.5138E-08 tot_iter=     125 conv_iter=      54 cpu clock= 3.51E+00
 tran: time= 2.9938E-08 tot_iter=     129 conv_iter=      56 cpu clock= 3.51E+00
 tran: time= 3.4738E-08 tot_iter=     133 conv_iter=      58 cpu clock= 3.51E+00
 tran: time= 3.9538E-08 tot_iter=     137 conv_iter=      60 cpu clock= 3.51E+00
 tran: time= 4.4338E-08 tot_iter=     141 conv_iter=      62 cpu clock= 3.51E+00
 tran: time= 4.8000E-08 tot_iter=     145 conv_iter=      64 cpu clock= 3.51E+00
 sweep: tran tran90   end,  cpu clock=  3.51E+00 memory=      1714 kb
 data: data=stimdata        index           =    9.10E+01
 dcop: begin dcop,  cpu clock=  3.51E+00
 dcop: end dcop,  cpu clock=  3.51E+00 memory=      1714 kb  tot_iter=     910
 output: /home/mrezaie/Downloads/ncx_inv/lib_all/and2/tOut_B_0001r/tOut_B_0001r.
 sweep: tran tran91   begin, stop_t=  4.80E-08 #sweeps= 481 cpu clock=  3.51E+00
 tran: time= 4.8100E-09 tot_iter=      55 conv_iter=      23 cpu clock= 3.52E+00
 tran: time= 1.0984E-08 tot_iter=     112 conv_iter=      48 cpu clock= 3.52E+00
 tran: time= 1.5331E-08 tot_iter=     117 conv_iter=      50 cpu clock= 3.52E+00
 tran: time= 2.0131E-08 tot_iter=     121 conv_iter=      52 cpu clock= 3.52E+00
 tran: time= 2.4931E-08 tot_iter=     125 conv_iter=      54 cpu clock= 3.52E+00
 tran: time= 2.9731E-08 tot_iter=     129 conv_iter=      56 cpu clock= 3.52E+00
 tran: time= 3.4531E-08 tot_iter=     133 conv_iter=      58 cpu clock= 3.52E+00
 tran: time= 3.9331E-08 tot_iter=     137 conv_iter=      60 cpu clock= 3.52E+00
 tran: time= 4.4131E-08 tot_iter=     141 conv_iter=      62 cpu clock= 3.52E+00
 tran: time= 4.8000E-08 tot_iter=     145 conv_iter=      64 cpu clock= 3.52E+00
 sweep: tran tran91   end,  cpu clock=  3.52E+00 memory=      1714 kb
 data: data=stimdata        index           =    9.20E+01
 dcop: begin dcop,  cpu clock=  3.52E+00
 dcop: end dcop,  cpu clock=  3.52E+00 memory=      1714 kb  tot_iter=     920
 output: /home/mrezaie/Downloads/ncx_inv/lib_all/and2/tOut_B_0001r/tOut_B_0001r.
 sweep: tran tran92   begin, stop_t=  4.80E-08 #sweeps= 481 cpu clock=  3.52E+00
 tran: time= 5.0067E-09 tot_iter=      47 conv_iter=      23 cpu clock= 3.52E+00
 tran: time= 1.0802E-08 tot_iter=     109 conv_iter=      49 cpu clock= 3.52E+00
 tran: time= 1.4922E-08 tot_iter=     114 conv_iter=      51 cpu clock= 3.52E+00
 tran: time= 1.9722E-08 tot_iter=     118 conv_iter=      53 cpu clock= 3.52E+00
 tran: time= 2.4522E-08 tot_iter=     122 conv_iter=      55 cpu clock= 3.52E+00
 tran: time= 2.9322E-08 tot_iter=     126 conv_iter=      57 cpu clock= 3.52E+00
 tran: time= 3.4122E-08 tot_iter=     130 conv_iter=      59 cpu clock= 3.52E+00
 tran: time= 3.8922E-08 tot_iter=     134 conv_iter=      61 cpu clock= 3.52E+00
 tran: time= 4.3722E-08 tot_iter=     138 conv_iter=      63 cpu clock= 3.52E+00
 tran: time= 4.8000E-08 tot_iter=     142 conv_iter=      65 cpu clock= 3.52E+00
 sweep: tran tran92   end,  cpu clock=  3.52E+00 memory=      1714 kb
 data: data=stimdata        index           =    9.30E+01
 dcop: begin dcop,  cpu clock=  3.52E+00
 dcop: end dcop,  cpu clock=  3.52E+00 memory=      1714 kb  tot_iter=     930
 output: /home/mrezaie/Downloads/ncx_inv/lib_all/and2/tOut_B_0001r/tOut_B_0001r.
 sweep: tran tran93   begin, stop_t=  4.80E-08 #sweeps= 481 cpu clock=  3.52E+00
 tran: time= 5.0000E-09 tot_iter=      47 conv_iter=      23 cpu clock= 3.53E+00
 tran: time= 1.0507E-08 tot_iter=     109 conv_iter=      49 cpu clock= 3.53E+00
 tran: time= 1.4446E-08 tot_iter=     114 conv_iter=      51 cpu clock= 3.53E+00
 tran: time= 1.9246E-08 tot_iter=     118 conv_iter=      53 cpu clock= 3.53E+00
 tran: time= 2.4046E-08 tot_iter=     122 conv_iter=      55 cpu clock= 3.53E+00
 tran: time= 2.8846E-08 tot_iter=     126 conv_iter=      57 cpu clock= 3.53E+00
 tran: time= 3.3646E-08 tot_iter=     130 conv_iter=      59 cpu clock= 3.53E+00
 tran: time= 3.8446E-08 tot_iter=     134 conv_iter=      61 cpu clock= 3.53E+00
 tran: time= 4.3246E-08 tot_iter=     138 conv_iter=      63 cpu clock= 3.53E+00
 tran: time= 4.8000E-08 tot_iter=     142 conv_iter=      65 cpu clock= 3.53E+00
 sweep: tran tran93   end,  cpu clock=  3.53E+00 memory=      1714 kb
 data: data=stimdata        index           =    9.40E+01
 dcop: begin dcop,  cpu clock=  3.53E+00
 dcop: end dcop,  cpu clock=  3.53E+00 memory=      1714 kb  tot_iter=     940
 output: /home/mrezaie/Downloads/ncx_inv/lib_all/and2/tOut_B_0001r/tOut_B_0001r.
 sweep: tran tran94   begin, stop_t=  4.80E-08 #sweeps= 481 cpu clock=  3.53E+00
 tran: time= 4.9854E-09 tot_iter=      47 conv_iter=      23 cpu clock= 3.53E+00
 tran: time= 9.9746E-09 tot_iter=     104 conv_iter=      47 cpu clock= 3.53E+00
 tran: time= 1.5977E-08 tot_iter=     112 conv_iter=      50 cpu clock= 3.53E+00
 tran: time= 2.0777E-08 tot_iter=     116 conv_iter=      52 cpu clock= 3.53E+00
 tran: time= 2.5577E-08 tot_iter=     120 conv_iter=      54 cpu clock= 3.53E+00
 tran: time= 3.0377E-08 tot_iter=     124 conv_iter=      56 cpu clock= 3.53E+00
 tran: time= 3.5177E-08 tot_iter=     128 conv_iter=      58 cpu clock= 3.53E+00
 tran: time= 3.9977E-08 tot_iter=     132 conv_iter=      60 cpu clock= 3.53E+00
 tran: time= 4.4777E-08 tot_iter=     136 conv_iter=      62 cpu clock= 3.53E+00
 tran: time= 4.8000E-08 tot_iter=     140 conv_iter=      64 cpu clock= 3.53E+00
 sweep: tran tran94   end,  cpu clock=  3.53E+00 memory=      1714 kb
 data: data=stimdata        index           =    9.50E+01
 dcop: begin dcop,  cpu clock=  3.53E+00
 dcop: end dcop,  cpu clock=  3.53E+00 memory=      1714 kb  tot_iter=     950
 output: /home/mrezaie/Downloads/ncx_inv/lib_all/and2/tOut_B_0001r/tOut_B_0001r.
 sweep: tran tran95   begin, stop_t=  4.80E-08 #sweeps= 481 cpu clock=  3.53E+00
 tran: time= 4.9727E-09 tot_iter=      47 conv_iter=      23 cpu clock= 3.54E+00
 tran: time= 9.7969E-09 tot_iter=     104 conv_iter=      47 cpu clock= 3.54E+00
 tran: time= 1.5620E-08 tot_iter=     112 conv_iter=      50 cpu clock= 3.54E+00
 tran: time= 2.0420E-08 tot_iter=     116 conv_iter=      52 cpu clock= 3.54E+00
 tran: time= 2.5220E-08 tot_iter=     120 conv_iter=      54 cpu clock= 3.54E+00
 tran: time= 3.0020E-08 tot_iter=     124 conv_iter=      56 cpu clock= 3.54E+00
 tran: time= 3.4820E-08 tot_iter=     128 conv_iter=      58 cpu clock= 3.54E+00
 tran: time= 3.9620E-08 tot_iter=     132 conv_iter=      60 cpu clock= 3.54E+00
 tran: time= 4.4420E-08 tot_iter=     136 conv_iter=      62 cpu clock= 3.54E+00
 tran: time= 4.8000E-08 tot_iter=     140 conv_iter=      64 cpu clock= 3.54E+00
 sweep: tran tran95   end,  cpu clock=  3.54E+00 memory=      1714 kb
 data: data=stimdata        index           =    9.60E+01
 dcop: begin dcop,  cpu clock=  3.54E+00
 dcop: end dcop,  cpu clock=  3.54E+00 memory=      1714 kb  tot_iter=     960
 output: /home/mrezaie/Downloads/ncx_inv/lib_all/and2/tOut_B_0001r/tOut_B_0001r.
 sweep: tran tran96   begin, stop_t=  4.80E-08 #sweeps= 481 cpu clock=  3.54E+00
 tran: time= 4.9642E-09 tot_iter=      47 conv_iter=      23 cpu clock= 3.54E+00
 tran: time= 9.6655E-09 tot_iter=     104 conv_iter=      47 cpu clock= 3.54E+00
 tran: time= 1.5313E-08 tot_iter=     112 conv_iter=      50 cpu clock= 3.54E+00
 tran: time= 2.0113E-08 tot_iter=     116 conv_iter=      52 cpu clock= 3.54E+00
 tran: time= 2.4913E-08 tot_iter=     120 conv_iter=      54 cpu clock= 3.54E+00
 tran: time= 2.9713E-08 tot_iter=     124 conv_iter=      56 cpu clock= 3.54E+00
 tran: time= 3.4513E-08 tot_iter=     128 conv_iter=      58 cpu clock= 3.54E+00
 tran: time= 3.9313E-08 tot_iter=     132 conv_iter=      60 cpu clock= 3.54E+00
 tran: time= 4.4113E-08 tot_iter=     136 conv_iter=      62 cpu clock= 3.54E+00
 tran: time= 4.8000E-08 tot_iter=     140 conv_iter=      64 cpu clock= 3.54E+00
 sweep: tran tran96   end,  cpu clock=  3.54E+00 memory=      1714 kb
 data: data=stimdata        index           =    9.70E+01
 dcop: begin dcop,  cpu clock=  3.54E+00
 dcop: end dcop,  cpu clock=  3.54E+00 memory=      1714 kb  tot_iter=     970
 output: /home/mrezaie/Downloads/ncx_inv/lib_all/and2/tOut_B_0001r/tOut_B_0001r.
 sweep: tran tran97   begin, stop_t=  4.80E-08 #sweeps= 481 cpu clock=  3.54E+00
 tran: time= 4.9596E-09 tot_iter=      47 conv_iter=      23 cpu clock= 3.55E+00
 tran: time= 1.0829E-08 tot_iter=     107 conv_iter=      48 cpu clock= 3.55E+00
 tran: time= 1.5060E-08 tot_iter=     112 conv_iter=      50 cpu clock= 3.55E+00
 tran: time= 1.9860E-08 tot_iter=     116 conv_iter=      52 cpu clock= 3.55E+00
 tran: time= 2.4660E-08 tot_iter=     120 conv_iter=      54 cpu clock= 3.55E+00
 tran: time= 2.9460E-08 tot_iter=     124 conv_iter=      56 cpu clock= 3.55E+00
 tran: time= 3.4260E-08 tot_iter=     128 conv_iter=      58 cpu clock= 3.55E+00
 tran: time= 3.9060E-08 tot_iter=     132 conv_iter=      60 cpu clock= 3.55E+00
 tran: time= 4.3860E-08 tot_iter=     136 conv_iter=      62 cpu clock= 3.55E+00
 tran: time= 4.8000E-08 tot_iter=     140 conv_iter=      64 cpu clock= 3.55E+00
 sweep: tran tran97   end,  cpu clock=  3.55E+00 memory=      1714 kb
 data: data=stimdata        index           =    9.80E+01
 dcop: begin dcop,  cpu clock=  3.55E+00
 dcop: end dcop,  cpu clock=  3.55E+00 memory=      1714 kb  tot_iter=     980
 output: /home/mrezaie/Downloads/ncx_inv/lib_all/and2/tOut_B_0001r/tOut_B_0001r.
 sweep: tran tran98   begin, stop_t=  4.80E-08 #sweeps= 481 cpu clock=  3.55E+00
 tran: time= 4.9580E-09 tot_iter=      47 conv_iter=      23 cpu clock= 3.55E+00
 tran: time= 1.0705E-08 tot_iter=     107 conv_iter=      48 cpu clock= 3.55E+00
 tran: time= 1.4839E-08 tot_iter=     112 conv_iter=      50 cpu clock= 3.55E+00
 tran: time= 1.9639E-08 tot_iter=     116 conv_iter=      52 cpu clock= 3.55E+00
 tran: time= 2.4439E-08 tot_iter=     120 conv_iter=      54 cpu clock= 3.55E+00
 tran: time= 2.9239E-08 tot_iter=     124 conv_iter=      56 cpu clock= 3.55E+00
 tran: time= 3.4039E-08 tot_iter=     128 conv_iter=      58 cpu clock= 3.55E+00
 tran: time= 3.8839E-08 tot_iter=     132 conv_iter=      60 cpu clock= 3.55E+00
 tran: time= 4.3639E-08 tot_iter=     136 conv_iter=      62 cpu clock= 3.55E+00
 tran: time= 4.8000E-08 tot_iter=     140 conv_iter=      64 cpu clock= 3.55E+00
 sweep: tran tran98   end,  cpu clock=  3.55E+00 memory=      1714 kb
 data: data=stimdata        index           =    9.90E+01
 dcop: begin dcop,  cpu clock=  3.55E+00
 dcop: end dcop,  cpu clock=  3.55E+00 memory=      1714 kb  tot_iter=     990
 output: /home/mrezaie/Downloads/ncx_inv/lib_all/and2/tOut_B_0001r/tOut_B_0001r.
 sweep: tran tran99   begin, stop_t=  4.80E-08 #sweeps= 481 cpu clock=  3.55E+00
 tran: time= 4.9591E-09 tot_iter=      47 conv_iter=      23 cpu clock= 3.55E+00
 tran: time= 1.0453E-08 tot_iter=     106 conv_iter=      48 cpu clock= 3.55E+00
 tran: time= 1.6750E-08 tot_iter=     113 conv_iter=      51 cpu clock= 3.56E+00
 tran: time= 2.1550E-08 tot_iter=     117 conv_iter=      53 cpu clock= 3.56E+00
 tran: time= 2.6350E-08 tot_iter=     121 conv_iter=      55 cpu clock= 3.56E+00
 tran: time= 3.1150E-08 tot_iter=     125 conv_iter=      57 cpu clock= 3.56E+00
 tran: time= 3.5950E-08 tot_iter=     129 conv_iter=      59 cpu clock= 3.56E+00
 tran: time= 4.0750E-08 tot_iter=     133 conv_iter=      61 cpu clock= 3.56E+00
 tran: time= 4.5550E-08 tot_iter=     137 conv_iter=      63 cpu clock= 3.56E+00
 tran: time= 4.8000E-08 tot_iter=     139 conv_iter=      64 cpu clock= 3.56E+00
 sweep: tran tran99   end,  cpu clock=  3.56E+00 memory=      1714 kb
 data: data=stimdata        index           =    1.00E+02
 dcop: begin dcop,  cpu clock=  3.56E+00
 dcop: end dcop,  cpu clock=  3.56E+00 memory=      1714 kb  tot_iter=    1000
 output: /home/mrezaie/Downloads/ncx_inv/lib_all/and2/tOut_B_0001r/tOut_B_0001r.
 sweep: tran tran100  begin, stop_t=  4.80E-08 #sweeps= 481 cpu clock=  3.56E+00
 tran: time= 4.9628E-09 tot_iter=      47 conv_iter=      23 cpu clock= 3.56E+00
 tran: time= 1.0393E-08 tot_iter=     109 conv_iter=      49 cpu clock= 3.56E+00
 tran: time= 1.6679E-08 tot_iter=     116 conv_iter=      52 cpu clock= 3.56E+00
 tran: time= 2.1479E-08 tot_iter=     120 conv_iter=      54 cpu clock= 3.56E+00
 tran: time= 2.6279E-08 tot_iter=     124 conv_iter=      56 cpu clock= 3.56E+00
 tran: time= 3.1079E-08 tot_iter=     128 conv_iter=      58 cpu clock= 3.56E+00
 tran: time= 3.5879E-08 tot_iter=     132 conv_iter=      60 cpu clock= 3.56E+00
 tran: time= 4.0679E-08 tot_iter=     136 conv_iter=      62 cpu clock= 3.56E+00
 tran: time= 4.5479E-08 tot_iter=     140 conv_iter=      64 cpu clock= 3.56E+00
 tran: time= 4.8000E-08 tot_iter=     142 conv_iter=      65 cpu clock= 3.56E+00
 sweep: tran tran100  end,  cpu clock=  3.56E+00 memory=      1714 kb
 data: data=stimdata        index           =    1.01E+02
 dcop: begin dcop,  cpu clock=  3.56E+00
 dcop: end dcop,  cpu clock=  3.56E+00 memory=      1714 kb  tot_iter=    1010
 output: /home/mrezaie/Downloads/ncx_inv/lib_all/and2/tOut_B_0001r/tOut_B_0001r.
 sweep: tran tran101  begin, stop_t=  4.80E-08 #sweeps= 481 cpu clock=  3.56E+00
 tran: time= 4.9649E-09 tot_iter=      47 conv_iter=      23 cpu clock= 3.56E+00
 tran: time= 1.0298E-08 tot_iter=     109 conv_iter=      49 cpu clock= 3.57E+00
 tran: time= 1.6510E-08 tot_iter=     116 conv_iter=      52 cpu clock= 3.57E+00
 tran: time= 2.1310E-08 tot_iter=     120 conv_iter=      54 cpu clock= 3.57E+00
 tran: time= 2.6110E-08 tot_iter=     124 conv_iter=      56 cpu clock= 3.57E+00
 tran: time= 3.0910E-08 tot_iter=     128 conv_iter=      58 cpu clock= 3.57E+00
 tran: time= 3.5710E-08 tot_iter=     132 conv_iter=      60 cpu clock= 3.57E+00
 tran: time= 4.0510E-08 tot_iter=     136 conv_iter=      62 cpu clock= 3.57E+00
 tran: time= 4.5310E-08 tot_iter=     140 conv_iter=      64 cpu clock= 3.57E+00
 tran: time= 4.8000E-08 tot_iter=     144 conv_iter=      66 cpu clock= 3.57E+00
 sweep: tran tran101  end,  cpu clock=  3.57E+00 memory=      1714 kb
 data: data=stimdata        index           =    1.02E+02
 dcop: begin dcop,  cpu clock=  3.57E+00
 dcop: end dcop,  cpu clock=  3.57E+00 memory=      1714 kb  tot_iter=    1020
 output: /home/mrezaie/Downloads/ncx_inv/lib_all/and2/tOut_B_0001r/tOut_B_0001r.
 sweep: tran tran102  begin, stop_t=  4.80E-08 #sweeps= 481 cpu clock=  3.57E+00
 tran: time= 4.9660E-09 tot_iter=      48 conv_iter=      23 cpu clock= 3.57E+00
 tran: time= 1.0217E-08 tot_iter=     109 conv_iter=      49 cpu clock= 3.57E+00
 tran: time= 1.6362E-08 tot_iter=     116 conv_iter=      52 cpu clock= 3.57E+00
 tran: time= 2.1162E-08 tot_iter=     120 conv_iter=      54 cpu clock= 3.57E+00
 tran: time= 2.5962E-08 tot_iter=     124 conv_iter=      56 cpu clock= 3.57E+00
 tran: time= 3.0762E-08 tot_iter=     128 conv_iter=      58 cpu clock= 3.57E+00
 tran: time= 3.5562E-08 tot_iter=     132 conv_iter=      60 cpu clock= 3.57E+00
 tran: time= 4.0362E-08 tot_iter=     136 conv_iter=      62 cpu clock= 3.57E+00
 tran: time= 4.5162E-08 tot_iter=     140 conv_iter=      64 cpu clock= 3.57E+00
 tran: time= 4.8000E-08 tot_iter=     144 conv_iter=      66 cpu clock= 3.57E+00
 sweep: tran tran102  end,  cpu clock=  3.57E+00 memory=      1714 kb
 data: data=stimdata        index           =    1.03E+02
 dcop: begin dcop,  cpu clock=  3.57E+00
 dcop: end dcop,  cpu clock=  3.57E+00 memory=      1714 kb  tot_iter=    1030
 output: /home/mrezaie/Downloads/ncx_inv/lib_all/and2/tOut_B_0001r/tOut_B_0001r.
 sweep: tran tran103  begin, stop_t=  4.80E-08 #sweeps= 481 cpu clock=  3.57E+00
 tran: time= 4.9697E-09 tot_iter=      48 conv_iter=      23 cpu clock= 3.57E+00
 tran: time= 1.0097E-08 tot_iter=     105 conv_iter=      47 cpu clock= 3.58E+00
 tran: time= 1.6068E-08 tot_iter=     113 conv_iter=      50 cpu clock= 3.58E+00
 tran: time= 2.0868E-08 tot_iter=     117 conv_iter=      52 cpu clock= 3.58E+00
 tran: time= 2.5668E-08 tot_iter=     121 conv_iter=      54 cpu clock= 3.58E+00
 tran: time= 3.0468E-08 tot_iter=     125 conv_iter=      56 cpu clock= 3.58E+00
 tran: time= 3.5268E-08 tot_iter=     129 conv_iter=      58 cpu clock= 3.58E+00
 tran: time= 4.0068E-08 tot_iter=     133 conv_iter=      60 cpu clock= 3.58E+00
 tran: time= 4.4868E-08 tot_iter=     137 conv_iter=      62 cpu clock= 3.58E+00
 tran: time= 4.8000E-08 tot_iter=     141 conv_iter=      64 cpu clock= 3.58E+00
 sweep: tran tran103  end,  cpu clock=  3.58E+00 memory=      1714 kb
 data: data=stimdata        index           =    1.04E+02
 dcop: begin dcop,  cpu clock=  3.58E+00
 dcop: end dcop,  cpu clock=  3.58E+00 memory=      1714 kb  tot_iter=    1040
 output: /home/mrezaie/Downloads/ncx_inv/lib_all/and2/tOut_B_0001r/tOut_B_0001r.
 sweep: tran tran104  begin, stop_t=  4.80E-08 #sweeps= 481 cpu clock=  3.58E+00
 tran: time= 4.9725E-09 tot_iter=      50 conv_iter=      23 cpu clock= 3.58E+00
 tran: time= 1.0085E-08 tot_iter=     107 conv_iter=      47 cpu clock= 3.58E+00
 tran: time= 1.6039E-08 tot_iter=     115 conv_iter=      50 cpu clock= 3.58E+00
 tran: time= 2.0839E-08 tot_iter=     119 conv_iter=      52 cpu clock= 3.58E+00
 tran: time= 2.5639E-08 tot_iter=     123 conv_iter=      54 cpu clock= 3.58E+00
 tran: time= 3.0439E-08 tot_iter=     127 conv_iter=      56 cpu clock= 3.58E+00
 tran: time= 3.5239E-08 tot_iter=     131 conv_iter=      58 cpu clock= 3.58E+00
 tran: time= 4.0039E-08 tot_iter=     135 conv_iter=      60 cpu clock= 3.58E+00
 tran: time= 4.4839E-08 tot_iter=     139 conv_iter=      62 cpu clock= 3.58E+00
 tran: time= 4.8000E-08 tot_iter=     143 conv_iter=      64 cpu clock= 3.58E+00
 sweep: tran tran104  end,  cpu clock=  3.58E+00 memory=      1714 kb
 sweep: data            data            1 end
>info:         ***** hspice job concluded
 lic: Release hspice token(s)
