***** HSPICE -- F-2011.09-SP1 64-BIT (Nov 18 2011) linux ******
 Input File: /home/mrezaie/Downloads/ncx_inv/lib_all/and2/tOut_A_0000r/tOut_A_00
 lic:
 lic: FLEXlm: v10.8
 lic: USER:   mrezaie              HOSTNAME: Microelectronic.lab.edu
 lic: HOSTID: ac162d8b13a0         PID:      4034
 lic: Using FLEXlm license file:
 lic: /opt/Admin/cadence.dat
 lic: Checkout 1 hspice
 lic: License/Maintenance for hspice will expire on 31-dec-2019/2019.12
 lic: NODE LOCKED license on hostid ac162d8b13a0
 lic:
 init: begin read circuit files,  cpu clock=  2.89E+00
       option brief
 init: end read circuit files,  cpu clock=  3.10E+00 memory=      1373 kb
 init: begin check errors,  cpu clock=  3.10E+00
 init: end check errors,  cpu clock=  3.11E+00 memory=      1679 kb
 init: begin setup matrix, pivot=     0 cpu clock=  3.11E+00
       establish matrix -- done,  cpu clock=  3.11E+00 memory=      1694 kb
       re-order matrix -- done,  cpu clock=  3.11E+00 memory=      1695 kb
 init: end setup matrix,  cpu clock=  3.11E+00 memory=      1713 kb
 sweep: data            data1            begin, #sweeps = 104
 data: data=stimdata        index           =    1.00E+00
 dcop: begin dcop,  cpu clock=  3.11E+00
 dcop: end dcop,  cpu clock=  3.12E+00 memory=      1713 kb  tot_iter=      13
 output: /home/mrezaie/Downloads/ncx_inv/lib_all/and2/tOut_A_0000r/tOut_A_0000r.
 sweep: tran tran1    begin, stop_t=  4.80E-08 #sweeps= 481 cpu clock=  3.12E+00
 tran: time= 5.0689E-09 tot_iter=     178 conv_iter=      70 cpu clock= 3.12E+00
 tran: time= 1.0725E-08 tot_iter=     196 conv_iter=      76 cpu clock= 3.12E+00
 tran: time= 1.5223E-08 tot_iter=     201 conv_iter=      78 cpu clock= 3.12E+00
 tran: time= 2.0023E-08 tot_iter=     205 conv_iter=      80 cpu clock= 3.12E+00
 tran: time= 2.4823E-08 tot_iter=     209 conv_iter=      82 cpu clock= 3.13E+00
 tran: time= 2.9623E-08 tot_iter=     213 conv_iter=      84 cpu clock= 3.13E+00
 tran: time= 3.4423E-08 tot_iter=     217 conv_iter=      86 cpu clock= 3.13E+00
 tran: time= 3.9223E-08 tot_iter=     221 conv_iter=      88 cpu clock= 3.13E+00
 tran: time= 4.4023E-08 tot_iter=     225 conv_iter=      90 cpu clock= 3.13E+00
 tran: time= 4.8000E-08 tot_iter=     229 conv_iter=      92 cpu clock= 3.13E+00
 sweep: tran tran1    end,  cpu clock=  3.13E+00 memory=      1714 kb
 data: data=stimdata        index           =    2.00E+00
 dcop: begin dcop,  cpu clock=  3.13E+00
 dcop: end dcop,  cpu clock=  3.13E+00 memory=      1714 kb  tot_iter=      26
 output: /home/mrezaie/Downloads/ncx_inv/lib_all/and2/tOut_A_0000r/tOut_A_0000r.
 sweep: tran tran2    begin, stop_t=  4.80E-08 #sweeps= 481 cpu clock=  3.13E+00
 tran: time= 5.0623E-09 tot_iter=     178 conv_iter=      70 cpu clock= 3.14E+00
 tran: time= 1.0675E-08 tot_iter=     196 conv_iter=      76 cpu clock= 3.14E+00
 tran: time= 1.5158E-08 tot_iter=     201 conv_iter=      78 cpu clock= 3.14E+00
 tran: time= 1.9958E-08 tot_iter=     205 conv_iter=      80 cpu clock= 3.14E+00
 tran: time= 2.4758E-08 tot_iter=     209 conv_iter=      82 cpu clock= 3.14E+00
 tran: time= 2.9558E-08 tot_iter=     213 conv_iter=      84 cpu clock= 3.14E+00
 tran: time= 3.4358E-08 tot_iter=     217 conv_iter=      86 cpu clock= 3.14E+00
 tran: time= 3.9158E-08 tot_iter=     221 conv_iter=      88 cpu clock= 3.14E+00
 tran: time= 4.3958E-08 tot_iter=     225 conv_iter=      90 cpu clock= 3.14E+00
 tran: time= 4.8000E-08 tot_iter=     229 conv_iter=      92 cpu clock= 3.14E+00
 sweep: tran tran2    end,  cpu clock=  3.14E+00 memory=      1714 kb
 data: data=stimdata        index           =    3.00E+00
 dcop: begin dcop,  cpu clock=  3.14E+00
 dcop: end dcop,  cpu clock=  3.14E+00 memory=      1714 kb  tot_iter=      39
 output: /home/mrezaie/Downloads/ncx_inv/lib_all/and2/tOut_A_0000r/tOut_A_0000r.
 sweep: tran tran3    begin, stop_t=  4.80E-08 #sweeps= 481 cpu clock=  3.14E+00
 tran: time= 5.0569E-09 tot_iter=     179 conv_iter=      70 cpu clock= 3.15E+00
 tran: time= 1.0634E-08 tot_iter=     197 conv_iter=      76 cpu clock= 3.15E+00
 tran: time= 1.5106E-08 tot_iter=     202 conv_iter=      78 cpu clock= 3.15E+00
 tran: time= 1.9906E-08 tot_iter=     206 conv_iter=      80 cpu clock= 3.15E+00
 tran: time= 2.4706E-08 tot_iter=     210 conv_iter=      82 cpu clock= 3.15E+00
 tran: time= 2.9506E-08 tot_iter=     214 conv_iter=      84 cpu clock= 3.15E+00
 tran: time= 3.4306E-08 tot_iter=     218 conv_iter=      86 cpu clock= 3.15E+00
 tran: time= 3.9106E-08 tot_iter=     222 conv_iter=      88 cpu clock= 3.15E+00
 tran: time= 4.3906E-08 tot_iter=     226 conv_iter=      90 cpu clock= 3.15E+00
 tran: time= 4.8000E-08 tot_iter=     230 conv_iter=      92 cpu clock= 3.15E+00
 sweep: tran tran3    end,  cpu clock=  3.15E+00 memory=      1714 kb
 data: data=stimdata        index           =    4.00E+00
 dcop: begin dcop,  cpu clock=  3.15E+00
 dcop: end dcop,  cpu clock=  3.15E+00 memory=      1714 kb  tot_iter=      52
 output: /home/mrezaie/Downloads/ncx_inv/lib_all/and2/tOut_A_0000r/tOut_A_0000r.
 sweep: tran tran4    begin, stop_t=  4.80E-08 #sweeps= 481 cpu clock=  3.15E+00
 tran: time= 5.0489E-09 tot_iter=     179 conv_iter=      70 cpu clock= 3.16E+00
 tran: time= 1.0575E-08 tot_iter=     197 conv_iter=      76 cpu clock= 3.16E+00
 tran: time= 1.5029E-08 tot_iter=     202 conv_iter=      78 cpu clock= 3.16E+00
 tran: time= 1.9829E-08 tot_iter=     206 conv_iter=      80 cpu clock= 3.16E+00
 tran: time= 2.4629E-08 tot_iter=     210 conv_iter=      82 cpu clock= 3.16E+00
 tran: time= 2.9429E-08 tot_iter=     214 conv_iter=      84 cpu clock= 3.16E+00
 tran: time= 3.4229E-08 tot_iter=     218 conv_iter=      86 cpu clock= 3.16E+00
 tran: time= 3.9029E-08 tot_iter=     222 conv_iter=      88 cpu clock= 3.16E+00
 tran: time= 4.3829E-08 tot_iter=     226 conv_iter=      90 cpu clock= 3.16E+00
 tran: time= 4.8000E-08 tot_iter=     230 conv_iter=      92 cpu clock= 3.16E+00
 sweep: tran tran4    end,  cpu clock=  3.16E+00 memory=      1714 kb
 data: data=stimdata        index           =    5.00E+00
 dcop: begin dcop,  cpu clock=  3.16E+00
 dcop: end dcop,  cpu clock=  3.16E+00 memory=      1714 kb  tot_iter=      65
 output: /home/mrezaie/Downloads/ncx_inv/lib_all/and2/tOut_A_0000r/tOut_A_0000r.
 sweep: tran tran5    begin, stop_t=  4.80E-08 #sweeps= 481 cpu clock=  3.16E+00
 tran: time= 5.0408E-09 tot_iter=     179 conv_iter=      70 cpu clock= 3.17E+00
 tran: time= 1.0519E-08 tot_iter=     197 conv_iter=      76 cpu clock= 3.17E+00
 tran: time= 1.4956E-08 tot_iter=     202 conv_iter=      78 cpu clock= 3.17E+00
 tran: time= 1.9756E-08 tot_iter=     206 conv_iter=      80 cpu clock= 3.17E+00
 tran: time= 2.4556E-08 tot_iter=     210 conv_iter=      82 cpu clock= 3.17E+00
 tran: time= 2.9356E-08 tot_iter=     214 conv_iter=      84 cpu clock= 3.17E+00
 tran: time= 3.4156E-08 tot_iter=     218 conv_iter=      86 cpu clock= 3.17E+00
 tran: time= 3.8956E-08 tot_iter=     222 conv_iter=      88 cpu clock= 3.17E+00
 tran: time= 4.3756E-08 tot_iter=     226 conv_iter=      90 cpu clock= 3.17E+00
 tran: time= 4.8000E-08 tot_iter=     230 conv_iter=      92 cpu clock= 3.17E+00
 sweep: tran tran5    end,  cpu clock=  3.17E+00 memory=      1714 kb
 data: data=stimdata        index           =    6.00E+00
 dcop: begin dcop,  cpu clock=  3.17E+00
 dcop: end dcop,  cpu clock=  3.17E+00 memory=      1714 kb  tot_iter=      78
 output: /home/mrezaie/Downloads/ncx_inv/lib_all/and2/tOut_A_0000r/tOut_A_0000r.
 sweep: tran tran6    begin, stop_t=  4.80E-08 #sweeps= 481 cpu clock=  3.17E+00
 tran: time= 5.0315E-09 tot_iter=     178 conv_iter=      70 cpu clock= 3.18E+00
 tran: time= 1.0457E-08 tot_iter=     196 conv_iter=      76 cpu clock= 3.18E+00
 tran: time= 1.4877E-08 tot_iter=     201 conv_iter=      78 cpu clock= 3.18E+00
 tran: time= 1.9677E-08 tot_iter=     205 conv_iter=      80 cpu clock= 3.18E+00
 tran: time= 2.4477E-08 tot_iter=     209 conv_iter=      82 cpu clock= 3.18E+00
 tran: time= 2.9277E-08 tot_iter=     213 conv_iter=      84 cpu clock= 3.18E+00
 tran: time= 3.4077E-08 tot_iter=     217 conv_iter=      86 cpu clock= 3.18E+00
 tran: time= 3.8877E-08 tot_iter=     221 conv_iter=      88 cpu clock= 3.18E+00
 tran: time= 4.3677E-08 tot_iter=     225 conv_iter=      90 cpu clock= 3.18E+00
 tran: time= 4.8000E-08 tot_iter=     229 conv_iter=      92 cpu clock= 3.18E+00
 sweep: tran tran6    end,  cpu clock=  3.18E+00 memory=      1714 kb
 data: data=stimdata        index           =    7.00E+00
 dcop: begin dcop,  cpu clock=  3.18E+00
 dcop: end dcop,  cpu clock=  3.18E+00 memory=      1714 kb  tot_iter=      91
 output: /home/mrezaie/Downloads/ncx_inv/lib_all/and2/tOut_A_0000r/tOut_A_0000r.
 sweep: tran tran7    begin, stop_t=  4.80E-08 #sweeps= 481 cpu clock=  3.18E+00
 tran: time= 5.0212E-09 tot_iter=     178 conv_iter=      70 cpu clock= 3.19E+00
 tran: time= 1.0387E-08 tot_iter=     196 conv_iter=      76 cpu clock= 3.19E+00
 tran: time= 1.4786E-08 tot_iter=     201 conv_iter=      78 cpu clock= 3.19E+00
 tran: time= 1.9586E-08 tot_iter=     205 conv_iter=      80 cpu clock= 3.19E+00
 tran: time= 2.4386E-08 tot_iter=     209 conv_iter=      82 cpu clock= 3.19E+00
 tran: time= 2.9186E-08 tot_iter=     213 conv_iter=      84 cpu clock= 3.19E+00
 tran: time= 3.3986E-08 tot_iter=     217 conv_iter=      86 cpu clock= 3.19E+00
 tran: time= 3.8786E-08 tot_iter=     221 conv_iter=      88 cpu clock= 3.19E+00
 tran: time= 4.3586E-08 tot_iter=     225 conv_iter=      90 cpu clock= 3.19E+00
 tran: time= 4.8000E-08 tot_iter=     229 conv_iter=      92 cpu clock= 3.19E+00
 sweep: tran tran7    end,  cpu clock=  3.19E+00 memory=      1714 kb
 data: data=stimdata        index           =    8.00E+00
 dcop: begin dcop,  cpu clock=  3.19E+00
 dcop: end dcop,  cpu clock=  3.19E+00 memory=      1714 kb  tot_iter=     104
 output: /home/mrezaie/Downloads/ncx_inv/lib_all/and2/tOut_A_0000r/tOut_A_0000r.
 sweep: tran tran8    begin, stop_t=  4.80E-08 #sweeps= 481 cpu clock=  3.19E+00
 tran: time= 5.0066E-09 tot_iter=     178 conv_iter=      70 cpu clock= 3.20E+00
 tran: time= 1.0294E-08 tot_iter=     196 conv_iter=      76 cpu clock= 3.20E+00
 tran: time= 1.4668E-08 tot_iter=     201 conv_iter=      78 cpu clock= 3.20E+00
 tran: time= 1.9468E-08 tot_iter=     205 conv_iter=      80 cpu clock= 3.20E+00
 tran: time= 2.4268E-08 tot_iter=     209 conv_iter=      82 cpu clock= 3.20E+00
 tran: time= 2.9068E-08 tot_iter=     213 conv_iter=      84 cpu clock= 3.20E+00
 tran: time= 3.3868E-08 tot_iter=     217 conv_iter=      86 cpu clock= 3.20E+00
 tran: time= 3.8668E-08 tot_iter=     221 conv_iter=      88 cpu clock= 3.20E+00
 tran: time= 4.3468E-08 tot_iter=     225 conv_iter=      90 cpu clock= 3.20E+00
 tran: time= 4.8000E-08 tot_iter=     229 conv_iter=      92 cpu clock= 3.20E+00
 sweep: tran tran8    end,  cpu clock=  3.20E+00 memory=      1714 kb
 data: data=stimdata        index           =    9.00E+00
 dcop: begin dcop,  cpu clock=  3.20E+00
 dcop: end dcop,  cpu clock=  3.20E+00 memory=      1714 kb  tot_iter=     117
 output: /home/mrezaie/Downloads/ncx_inv/lib_all/and2/tOut_A_0000r/tOut_A_0000r.
 sweep: tran tran9    begin, stop_t=  4.80E-08 #sweeps= 481 cpu clock=  3.20E+00
 tran: time= 4.9896E-09 tot_iter=     178 conv_iter=      70 cpu clock= 3.20E+00
 tran: time= 1.0191E-08 tot_iter=     196 conv_iter=      76 cpu clock= 3.20E+00
 tran: time= 1.4537E-08 tot_iter=     201 conv_iter=      78 cpu clock= 3.20E+00
 tran: time= 1.9337E-08 tot_iter=     205 conv_iter=      80 cpu clock= 3.20E+00
 tran: time= 2.4137E-08 tot_iter=     209 conv_iter=      82 cpu clock= 3.20E+00
 tran: time= 2.8937E-08 tot_iter=     213 conv_iter=      84 cpu clock= 3.20E+00
 tran: time= 3.3737E-08 tot_iter=     217 conv_iter=      86 cpu clock= 3.20E+00
 tran: time= 3.8537E-08 tot_iter=     221 conv_iter=      88 cpu clock= 3.20E+00
 tran: time= 4.3337E-08 tot_iter=     225 conv_iter=      90 cpu clock= 3.20E+00
 tran: time= 4.8000E-08 tot_iter=     229 conv_iter=      92 cpu clock= 3.20E+00
 sweep: tran tran9    end,  cpu clock=  3.20E+00 memory=      1714 kb
 data: data=stimdata        index           =    1.00E+01
 dcop: begin dcop,  cpu clock=  3.20E+00
 dcop: end dcop,  cpu clock=  3.21E+00 memory=      1714 kb  tot_iter=     130
 output: /home/mrezaie/Downloads/ncx_inv/lib_all/and2/tOut_A_0000r/tOut_A_0000r.
 sweep: tran tran10   begin, stop_t=  4.80E-08 #sweeps= 481 cpu clock=  3.21E+00
 tran: time= 4.9708E-09 tot_iter=     178 conv_iter=      70 cpu clock= 3.21E+00
 tran: time= 1.0074E-08 tot_iter=     196 conv_iter=      76 cpu clock= 3.21E+00
 tran: time= 1.6787E-08 tot_iter=     203 conv_iter=      79 cpu clock= 3.21E+00
 tran: time= 2.1587E-08 tot_iter=     207 conv_iter=      81 cpu clock= 3.21E+00
 tran: time= 2.6387E-08 tot_iter=     211 conv_iter=      83 cpu clock= 3.21E+00
 tran: time= 3.1187E-08 tot_iter=     215 conv_iter=      85 cpu clock= 3.21E+00
 tran: time= 3.5987E-08 tot_iter=     219 conv_iter=      87 cpu clock= 3.21E+00
 tran: time= 4.0787E-08 tot_iter=     223 conv_iter=      89 cpu clock= 3.21E+00
 tran: time= 4.5587E-08 tot_iter=     227 conv_iter=      91 cpu clock= 3.21E+00
 tran: time= 4.8000E-08 tot_iter=     229 conv_iter=      92 cpu clock= 3.21E+00
 sweep: tran tran10   end,  cpu clock=  3.21E+00 memory=      1714 kb
 data: data=stimdata        index           =    1.10E+01
 dcop: begin dcop,  cpu clock=  3.21E+00
 dcop: end dcop,  cpu clock=  3.21E+00 memory=      1714 kb  tot_iter=     143
 output: /home/mrezaie/Downloads/ncx_inv/lib_all/and2/tOut_A_0000r/tOut_A_0000r.
 sweep: tran tran11   begin, stop_t=  4.80E-08 #sweeps= 481 cpu clock=  3.21E+00
 tran: time= 4.9528E-09 tot_iter=     177 conv_iter=      70 cpu clock= 3.22E+00
 tran: time= 9.9594E-09 tot_iter=     195 conv_iter=      76 cpu clock= 3.22E+00
 tran: time= 1.6600E-08 tot_iter=     202 conv_iter=      79 cpu clock= 3.22E+00
 tran: time= 2.1400E-08 tot_iter=     206 conv_iter=      81 cpu clock= 3.22E+00
 tran: time= 2.6200E-08 tot_iter=     210 conv_iter=      83 cpu clock= 3.22E+00
 tran: time= 3.1000E-08 tot_iter=     214 conv_iter=      85 cpu clock= 3.22E+00
 tran: time= 3.5800E-08 tot_iter=     218 conv_iter=      87 cpu clock= 3.22E+00
 tran: time= 4.0600E-08 tot_iter=     222 conv_iter=      89 cpu clock= 3.22E+00
 tran: time= 4.5400E-08 tot_iter=     226 conv_iter=      91 cpu clock= 3.22E+00
 tran: time= 4.8000E-08 tot_iter=     228 conv_iter=      92 cpu clock= 3.22E+00
 sweep: tran tran11   end,  cpu clock=  3.22E+00 memory=      1714 kb
 data: data=stimdata        index           =    1.20E+01
 dcop: begin dcop,  cpu clock=  3.22E+00
 dcop: end dcop,  cpu clock=  3.22E+00 memory=      1714 kb  tot_iter=     156
 output: /home/mrezaie/Downloads/ncx_inv/lib_all/and2/tOut_A_0000r/tOut_A_0000r.
 sweep: tran tran12   begin, stop_t=  4.80E-08 #sweeps= 481 cpu clock=  3.22E+00
 tran: time= 4.9316E-09 tot_iter=     177 conv_iter=      70 cpu clock= 3.23E+00
 tran: time= 9.8250E-09 tot_iter=     195 conv_iter=      76 cpu clock= 3.23E+00
 tran: time= 1.6382E-08 tot_iter=     202 conv_iter=      79 cpu clock= 3.23E+00
 tran: time= 2.1182E-08 tot_iter=     206 conv_iter=      81 cpu clock= 3.23E+00
 tran: time= 2.5982E-08 tot_iter=     210 conv_iter=      83 cpu clock= 3.23E+00
 tran: time= 3.0782E-08 tot_iter=     214 conv_iter=      85 cpu clock= 3.23E+00
 tran: time= 3.5582E-08 tot_iter=     218 conv_iter=      87 cpu clock= 3.23E+00
 tran: time= 4.0382E-08 tot_iter=     222 conv_iter=      89 cpu clock= 3.23E+00
 tran: time= 4.5182E-08 tot_iter=     226 conv_iter=      91 cpu clock= 3.23E+00
 tran: time= 4.8000E-08 tot_iter=     230 conv_iter=      93 cpu clock= 3.23E+00
 sweep: tran tran12   end,  cpu clock=  3.23E+00 memory=      1714 kb
 data: data=stimdata        index           =    1.30E+01
 dcop: begin dcop,  cpu clock=  3.23E+00
 dcop: end dcop,  cpu clock=  3.23E+00 memory=      1714 kb  tot_iter=     169
 output: /home/mrezaie/Downloads/ncx_inv/lib_all/and2/tOut_A_0000r/tOut_A_0000r.
 sweep: tran tran13   begin, stop_t=  4.80E-08 #sweeps= 481 cpu clock=  3.23E+00
 tran: time= 4.9194E-09 tot_iter=     177 conv_iter=      70 cpu clock= 3.23E+00
 tran: time= 9.7487E-09 tot_iter=     195 conv_iter=      76 cpu clock= 3.23E+00
 tran: time= 1.6259E-08 tot_iter=     202 conv_iter=      79 cpu clock= 3.23E+00
 tran: time= 2.1059E-08 tot_iter=     206 conv_iter=      81 cpu clock= 3.23E+00
 tran: time= 2.5859E-08 tot_iter=     210 conv_iter=      83 cpu clock= 3.23E+00
 tran: time= 3.0659E-08 tot_iter=     214 conv_iter=      85 cpu clock= 3.23E+00
 tran: time= 3.5459E-08 tot_iter=     218 conv_iter=      87 cpu clock= 3.23E+00
 tran: time= 4.0259E-08 tot_iter=     222 conv_iter=      89 cpu clock= 3.23E+00
 tran: time= 4.5059E-08 tot_iter=     226 conv_iter=      91 cpu clock= 3.23E+00
 tran: time= 4.8000E-08 tot_iter=     230 conv_iter=      93 cpu clock= 3.23E+00
 sweep: tran tran13   end,  cpu clock=  3.23E+00 memory=      1714 kb
 data: data=stimdata        index           =    1.40E+01
 dcop: begin dcop,  cpu clock=  3.24E+00
 dcop: end dcop,  cpu clock=  3.24E+00 memory=      1714 kb  tot_iter=     182
 output: /home/mrezaie/Downloads/ncx_inv/lib_all/and2/tOut_A_0000r/tOut_A_0000r.
 sweep: tran tran14   begin, stop_t=  4.80E-08 #sweeps= 481 cpu clock=  3.24E+00
 tran: time= 4.8927E-09 tot_iter=     160 conv_iter=      65 cpu clock= 3.24E+00
 tran: time= 9.6898E-09 tot_iter=     178 conv_iter=      71 cpu clock= 3.24E+00
 tran: time= 1.6204E-08 tot_iter=     186 conv_iter=      74 cpu clock= 3.24E+00
 tran: time= 2.1004E-08 tot_iter=     190 conv_iter=      76 cpu clock= 3.24E+00
 tran: time= 2.5804E-08 tot_iter=     194 conv_iter=      78 cpu clock= 3.24E+00
 tran: time= 3.0604E-08 tot_iter=     198 conv_iter=      80 cpu clock= 3.24E+00
 tran: time= 3.5404E-08 tot_iter=     202 conv_iter=      82 cpu clock= 3.24E+00
 tran: time= 4.0204E-08 tot_iter=     206 conv_iter=      84 cpu clock= 3.24E+00
 tran: time= 4.5004E-08 tot_iter=     210 conv_iter=      86 cpu clock= 3.24E+00
 tran: time= 4.8000E-08 tot_iter=     214 conv_iter=      88 cpu clock= 3.24E+00
 sweep: tran tran14   end,  cpu clock=  3.24E+00 memory=      1714 kb
 data: data=stimdata        index           =    1.50E+01
 dcop: begin dcop,  cpu clock=  3.24E+00
 dcop: end dcop,  cpu clock=  3.24E+00 memory=      1714 kb  tot_iter=     195
 output: /home/mrezaie/Downloads/ncx_inv/lib_all/and2/tOut_A_0000r/tOut_A_0000r.
 sweep: tran tran15   begin, stop_t=  4.80E-08 #sweeps= 481 cpu clock=  3.24E+00
 tran: time= 4.8699E-09 tot_iter=     160 conv_iter=      65 cpu clock= 3.25E+00
 tran: time= 1.1321E-08 tot_iter=     181 conv_iter=      72 cpu clock= 3.25E+00
 tran: time= 1.5965E-08 tot_iter=     186 conv_iter=      74 cpu clock= 3.25E+00
 tran: time= 2.0765E-08 tot_iter=     190 conv_iter=      76 cpu clock= 3.25E+00
 tran: time= 2.5565E-08 tot_iter=     194 conv_iter=      78 cpu clock= 3.25E+00
 tran: time= 3.0365E-08 tot_iter=     198 conv_iter=      80 cpu clock= 3.25E+00
 tran: time= 3.5165E-08 tot_iter=     202 conv_iter=      82 cpu clock= 3.25E+00
 tran: time= 3.9965E-08 tot_iter=     206 conv_iter=      84 cpu clock= 3.25E+00
 tran: time= 4.4765E-08 tot_iter=     210 conv_iter=      86 cpu clock= 3.25E+00
 tran: time= 4.8000E-08 tot_iter=     214 conv_iter=      88 cpu clock= 3.25E+00
 sweep: tran tran15   end,  cpu clock=  3.25E+00 memory=      1714 kb
 data: data=stimdata        index           =    1.60E+01
 dcop: begin dcop,  cpu clock=  3.25E+00
 dcop: end dcop,  cpu clock=  3.25E+00 memory=      1714 kb  tot_iter=     208
 output: /home/mrezaie/Downloads/ncx_inv/lib_all/and2/tOut_A_0000r/tOut_A_0000r.
 sweep: tran tran16   begin, stop_t=  4.80E-08 #sweeps= 481 cpu clock=  3.25E+00
 tran: time= 4.8487E-09 tot_iter=     160 conv_iter=      65 cpu clock= 3.26E+00
 tran: time= 1.1144E-08 tot_iter=     181 conv_iter=      72 cpu clock= 3.26E+00
 tran: time= 1.5742E-08 tot_iter=     186 conv_iter=      74 cpu clock= 3.26E+00
 tran: time= 2.0542E-08 tot_iter=     190 conv_iter=      76 cpu clock= 3.26E+00
 tran: time= 2.5342E-08 tot_iter=     194 conv_iter=      78 cpu clock= 3.26E+00
 tran: time= 3.0142E-08 tot_iter=     198 conv_iter=      80 cpu clock= 3.26E+00
 tran: time= 3.4942E-08 tot_iter=     202 conv_iter=      82 cpu clock= 3.26E+00
 tran: time= 3.9742E-08 tot_iter=     206 conv_iter=      84 cpu clock= 3.26E+00
 tran: time= 4.4542E-08 tot_iter=     210 conv_iter=      86 cpu clock= 3.26E+00
 tran: time= 4.8000E-08 tot_iter=     214 conv_iter=      88 cpu clock= 3.26E+00
 sweep: tran tran16   end,  cpu clock=  3.26E+00 memory=      1714 kb
 data: data=stimdata        index           =    1.70E+01
 dcop: begin dcop,  cpu clock=  3.26E+00
 dcop: end dcop,  cpu clock=  3.26E+00 memory=      1714 kb  tot_iter=     221
 output: /home/mrezaie/Downloads/ncx_inv/lib_all/and2/tOut_A_0000r/tOut_A_0000r.
 sweep: tran tran17   begin, stop_t=  4.80E-08 #sweeps= 481 cpu clock=  3.26E+00
 tran: time= 4.8270E-09 tot_iter=     160 conv_iter=      65 cpu clock= 3.26E+00
 tran: time= 1.0964E-08 tot_iter=     181 conv_iter=      72 cpu clock= 3.26E+00
 tran: time= 1.5514E-08 tot_iter=     186 conv_iter=      74 cpu clock= 3.26E+00
 tran: time= 2.0314E-08 tot_iter=     190 conv_iter=      76 cpu clock= 3.26E+00
 tran: time= 2.5114E-08 tot_iter=     194 conv_iter=      78 cpu clock= 3.26E+00
 tran: time= 2.9914E-08 tot_iter=     198 conv_iter=      80 cpu clock= 3.26E+00
 tran: time= 3.4714E-08 tot_iter=     202 conv_iter=      82 cpu clock= 3.26E+00
 tran: time= 3.9514E-08 tot_iter=     206 conv_iter=      84 cpu clock= 3.26E+00
 tran: time= 4.4314E-08 tot_iter=     210 conv_iter=      86 cpu clock= 3.26E+00
 tran: time= 4.8000E-08 tot_iter=     214 conv_iter=      88 cpu clock= 3.26E+00
 sweep: tran tran17   end,  cpu clock=  3.26E+00 memory=      1714 kb
 data: data=stimdata        index           =    1.80E+01
 dcop: begin dcop,  cpu clock=  3.27E+00
 dcop: end dcop,  cpu clock=  3.27E+00 memory=      1714 kb  tot_iter=     234
 output: /home/mrezaie/Downloads/ncx_inv/lib_all/and2/tOut_A_0000r/tOut_A_0000r.
 sweep: tran tran18   begin, stop_t=  4.80E-08 #sweeps= 481 cpu clock=  3.27E+00
 tran: time= 4.8028E-09 tot_iter=     160 conv_iter=      65 cpu clock= 3.27E+00
 tran: time= 1.0765E-08 tot_iter=     181 conv_iter=      72 cpu clock= 3.27E+00
 tran: time= 1.5263E-08 tot_iter=     186 conv_iter=      74 cpu clock= 3.27E+00
 tran: time= 2.0063E-08 tot_iter=     190 conv_iter=      76 cpu clock= 3.27E+00
 tran: time= 2.4863E-08 tot_iter=     194 conv_iter=      78 cpu clock= 3.27E+00
 tran: time= 2.9663E-08 tot_iter=     198 conv_iter=      80 cpu clock= 3.27E+00
 tran: time= 3.4463E-08 tot_iter=     202 conv_iter=      82 cpu clock= 3.27E+00
 tran: time= 3.9263E-08 tot_iter=     206 conv_iter=      84 cpu clock= 3.27E+00
 tran: time= 4.4063E-08 tot_iter=     210 conv_iter=      86 cpu clock= 3.27E+00
 tran: time= 4.8000E-08 tot_iter=     214 conv_iter=      88 cpu clock= 3.27E+00
 sweep: tran tran18   end,  cpu clock=  3.27E+00 memory=      1714 kb
 data: data=stimdata        index           =    1.90E+01
 dcop: begin dcop,  cpu clock=  3.27E+00
 dcop: end dcop,  cpu clock=  3.27E+00 memory=      1714 kb  tot_iter=     247
 output: /home/mrezaie/Downloads/ncx_inv/lib_all/and2/tOut_A_0000r/tOut_A_0000r.
 sweep: tran tran19   begin, stop_t=  4.80E-08 #sweeps= 481 cpu clock=  3.27E+00
 tran: time= 5.0617E-09 tot_iter=     163 conv_iter=      66 cpu clock= 3.28E+00
 tran: time= 1.0583E-08 tot_iter=     181 conv_iter=      72 cpu clock= 3.28E+00
 tran: time= 1.5032E-08 tot_iter=     186 conv_iter=      74 cpu clock= 3.28E+00
 tran: time= 1.9832E-08 tot_iter=     190 conv_iter=      76 cpu clock= 3.28E+00
 tran: time= 2.4632E-08 tot_iter=     194 conv_iter=      78 cpu clock= 3.28E+00
 tran: time= 2.9432E-08 tot_iter=     198 conv_iter=      80 cpu clock= 3.28E+00
 tran: time= 3.4232E-08 tot_iter=     202 conv_iter=      82 cpu clock= 3.28E+00
 tran: time= 3.9032E-08 tot_iter=     206 conv_iter=      84 cpu clock= 3.28E+00
 tran: time= 4.3832E-08 tot_iter=     210 conv_iter=      86 cpu clock= 3.28E+00
 tran: time= 4.8000E-08 tot_iter=     214 conv_iter=      88 cpu clock= 3.28E+00
 sweep: tran tran19   end,  cpu clock=  3.28E+00 memory=      1714 kb
 data: data=stimdata        index           =    2.00E+01
 dcop: begin dcop,  cpu clock=  3.28E+00
 dcop: end dcop,  cpu clock=  3.28E+00 memory=      1714 kb  tot_iter=     260
 output: /home/mrezaie/Downloads/ncx_inv/lib_all/and2/tOut_A_0000r/tOut_A_0000r.
 sweep: tran tran20   begin, stop_t=  4.80E-08 #sweeps= 481 cpu clock=  3.28E+00
 tran: time= 5.0323E-09 tot_iter=     164 conv_iter=      66 cpu clock= 3.28E+00
 tran: time= 1.0409E-08 tot_iter=     182 conv_iter=      72 cpu clock= 3.29E+00
 tran: time= 1.4813E-08 tot_iter=     187 conv_iter=      74 cpu clock= 3.29E+00
 tran: time= 1.9613E-08 tot_iter=     191 conv_iter=      76 cpu clock= 3.29E+00
 tran: time= 2.4413E-08 tot_iter=     195 conv_iter=      78 cpu clock= 3.29E+00
 tran: time= 2.9213E-08 tot_iter=     199 conv_iter=      80 cpu clock= 3.29E+00
 tran: time= 3.4013E-08 tot_iter=     203 conv_iter=      82 cpu clock= 3.29E+00
 tran: time= 3.8813E-08 tot_iter=     207 conv_iter=      84 cpu clock= 3.29E+00
 tran: time= 4.3613E-08 tot_iter=     211 conv_iter=      86 cpu clock= 3.29E+00
 tran: time= 4.8000E-08 tot_iter=     215 conv_iter=      88 cpu clock= 3.29E+00
 sweep: tran tran20   end,  cpu clock=  3.29E+00 memory=      1714 kb
 data: data=stimdata        index           =    2.10E+01
 dcop: begin dcop,  cpu clock=  3.29E+00
 dcop: end dcop,  cpu clock=  3.29E+00 memory=      1714 kb  tot_iter=     273
 output: /home/mrezaie/Downloads/ncx_inv/lib_all/and2/tOut_A_0000r/tOut_A_0000r.
 sweep: tran tran21   begin, stop_t=  4.80E-08 #sweeps= 481 cpu clock=  3.29E+00
 tran: time= 5.0030E-09 tot_iter=     163 conv_iter=      66 cpu clock= 3.29E+00
 tran: time= 1.0237E-08 tot_iter=     181 conv_iter=      72 cpu clock= 3.29E+00
 tran: time= 1.4595E-08 tot_iter=     186 conv_iter=      74 cpu clock= 3.29E+00
 tran: time= 1.9395E-08 tot_iter=     190 conv_iter=      76 cpu clock= 3.29E+00
 tran: time= 2.4195E-08 tot_iter=     194 conv_iter=      78 cpu clock= 3.29E+00
 tran: time= 2.8995E-08 tot_iter=     198 conv_iter=      80 cpu clock= 3.29E+00
 tran: time= 3.3795E-08 tot_iter=     202 conv_iter=      82 cpu clock= 3.29E+00
 tran: time= 3.8595E-08 tot_iter=     206 conv_iter=      84 cpu clock= 3.29E+00
 tran: time= 4.3395E-08 tot_iter=     210 conv_iter=      86 cpu clock= 3.29E+00
 tran: time= 4.8000E-08 tot_iter=     214 conv_iter=      88 cpu clock= 3.29E+00
 sweep: tran tran21   end,  cpu clock=  3.29E+00 memory=      1714 kb
 data: data=stimdata        index           =    2.20E+01
 dcop: begin dcop,  cpu clock=  3.29E+00
 dcop: end dcop,  cpu clock=  3.29E+00 memory=      1714 kb  tot_iter=     286
 output: /home/mrezaie/Downloads/ncx_inv/lib_all/and2/tOut_A_0000r/tOut_A_0000r.
 sweep: tran tran22   begin, stop_t=  4.80E-08 #sweeps= 481 cpu clock=  3.29E+00
 tran: time= 5.0364E-09 tot_iter=     175 conv_iter=      72 cpu clock= 3.30E+00
 tran: time= 1.0410E-08 tot_iter=     193 conv_iter=      78 cpu clock= 3.30E+00
 tran: time= 1.4808E-08 tot_iter=     198 conv_iter=      80 cpu clock= 3.30E+00
 tran: time= 1.9608E-08 tot_iter=     202 conv_iter=      82 cpu clock= 3.30E+00
 tran: time= 2.4408E-08 tot_iter=     206 conv_iter=      84 cpu clock= 3.30E+00
 tran: time= 2.9208E-08 tot_iter=     210 conv_iter=      86 cpu clock= 3.30E+00
 tran: time= 3.4008E-08 tot_iter=     214 conv_iter=      88 cpu clock= 3.30E+00
 tran: time= 3.8808E-08 tot_iter=     218 conv_iter=      90 cpu clock= 3.30E+00
 tran: time= 4.3608E-08 tot_iter=     222 conv_iter=      92 cpu clock= 3.30E+00
 tran: time= 4.8000E-08 tot_iter=     226 conv_iter=      94 cpu clock= 3.30E+00
 sweep: tran tran22   end,  cpu clock=  3.30E+00 memory=      1714 kb
 data: data=stimdata        index           =    2.30E+01
 dcop: begin dcop,  cpu clock=  3.30E+00
 dcop: end dcop,  cpu clock=  3.30E+00 memory=      1714 kb  tot_iter=     299
 output: /home/mrezaie/Downloads/ncx_inv/lib_all/and2/tOut_A_0000r/tOut_A_0000r.
 sweep: tran tran23   begin, stop_t=  4.80E-08 #sweeps= 481 cpu clock=  3.30E+00
 tran: time= 4.9426E-09 tot_iter=     162 conv_iter=      66 cpu clock= 3.31E+00
 tran: time= 9.8723E-09 tot_iter=     180 conv_iter=      72 cpu clock= 3.31E+00
 tran: time= 1.6461E-08 tot_iter=     187 conv_iter=      75 cpu clock= 3.31E+00
 tran: time= 2.1261E-08 tot_iter=     191 conv_iter=      77 cpu clock= 3.31E+00
 tran: time= 2.6061E-08 tot_iter=     195 conv_iter=      79 cpu clock= 3.31E+00
 tran: time= 3.0861E-08 tot_iter=     199 conv_iter=      81 cpu clock= 3.31E+00
 tran: time= 3.5661E-08 tot_iter=     203 conv_iter=      83 cpu clock= 3.31E+00
 tran: time= 4.0461E-08 tot_iter=     207 conv_iter=      85 cpu clock= 3.31E+00
 tran: time= 4.5261E-08 tot_iter=     211 conv_iter=      87 cpu clock= 3.31E+00
 tran: time= 4.8000E-08 tot_iter=     215 conv_iter=      89 cpu clock= 3.31E+00
 sweep: tran tran23   end,  cpu clock=  3.31E+00 memory=      1714 kb
 data: data=stimdata        index           =    2.40E+01
 dcop: begin dcop,  cpu clock=  3.31E+00
 dcop: end dcop,  cpu clock=  3.31E+00 memory=      1714 kb  tot_iter=     312
 output: /home/mrezaie/Downloads/ncx_inv/lib_all/and2/tOut_A_0000r/tOut_A_0000r.
 sweep: tran tran24   begin, stop_t=  4.80E-08 #sweeps= 481 cpu clock=  3.31E+00
 tran: time= 4.9841E-09 tot_iter=     174 conv_iter=      71 cpu clock= 3.31E+00
 tran: time= 1.0100E-08 tot_iter=     192 conv_iter=      77 cpu clock= 3.32E+00
 tran: time= 1.4415E-08 tot_iter=     197 conv_iter=      79 cpu clock= 3.32E+00
 tran: time= 1.9215E-08 tot_iter=     201 conv_iter=      81 cpu clock= 3.32E+00
 tran: time= 2.4015E-08 tot_iter=     205 conv_iter=      83 cpu clock= 3.32E+00
 tran: time= 2.8815E-08 tot_iter=     209 conv_iter=      85 cpu clock= 3.32E+00
 tran: time= 3.3615E-08 tot_iter=     213 conv_iter=      87 cpu clock= 3.32E+00
 tran: time= 3.8415E-08 tot_iter=     217 conv_iter=      89 cpu clock= 3.32E+00
 tran: time= 4.3215E-08 tot_iter=     221 conv_iter=      91 cpu clock= 3.32E+00
 tran: time= 4.8000E-08 tot_iter=     225 conv_iter=      93 cpu clock= 3.32E+00
 sweep: tran tran24   end,  cpu clock=  3.32E+00 memory=      1714 kb
 data: data=stimdata        index           =    2.50E+01
 dcop: begin dcop,  cpu clock=  3.32E+00
 dcop: end dcop,  cpu clock=  3.32E+00 memory=      1714 kb  tot_iter=     325
 output: /home/mrezaie/Downloads/ncx_inv/lib_all/and2/tOut_A_0000r/tOut_A_0000r.
 sweep: tran tran25   begin, stop_t=  4.80E-08 #sweeps= 481 cpu clock=  3.32E+00
 tran: time= 4.9371E-09 tot_iter=     174 conv_iter=      71 cpu clock= 3.32E+00
 tran: time= 9.8171E-09 tot_iter=     192 conv_iter=      77 cpu clock= 3.32E+00
 tran: time= 1.6366E-08 tot_iter=     199 conv_iter=      80 cpu clock= 3.32E+00
 tran: time= 2.1166E-08 tot_iter=     203 conv_iter=      82 cpu clock= 3.32E+00
 tran: time= 2.5966E-08 tot_iter=     207 conv_iter=      84 cpu clock= 3.32E+00
 tran: time= 3.0766E-08 tot_iter=     211 conv_iter=      86 cpu clock= 3.32E+00
 tran: time= 3.5566E-08 tot_iter=     215 conv_iter=      88 cpu clock= 3.32E+00
 tran: time= 4.0366E-08 tot_iter=     219 conv_iter=      90 cpu clock= 3.32E+00
 tran: time= 4.5166E-08 tot_iter=     223 conv_iter=      92 cpu clock= 3.32E+00
 tran: time= 4.8000E-08 tot_iter=     227 conv_iter=      94 cpu clock= 3.32E+00
 sweep: tran tran25   end,  cpu clock=  3.32E+00 memory=      1714 kb
 data: data=stimdata        index           =    2.60E+01
 dcop: begin dcop,  cpu clock=  3.32E+00
 dcop: end dcop,  cpu clock=  3.33E+00 memory=      1714 kb  tot_iter=     338
 output: /home/mrezaie/Downloads/ncx_inv/lib_all/and2/tOut_A_0000r/tOut_A_0000r.
 sweep: tran tran26   begin, stop_t=  4.80E-08 #sweeps= 481 cpu clock=  3.33E+00
 tran: time= 4.9158E-09 tot_iter=     174 conv_iter=      71 cpu clock= 3.33E+00
 tran: time= 9.6884E-09 tot_iter=     192 conv_iter=      77 cpu clock= 3.33E+00
 tran: time= 1.6158E-08 tot_iter=     199 conv_iter=      80 cpu clock= 3.33E+00
 tran: time= 2.0958E-08 tot_iter=     203 conv_iter=      82 cpu clock= 3.33E+00
 tran: time= 2.5758E-08 tot_iter=     207 conv_iter=      84 cpu clock= 3.33E+00
 tran: time= 3.0558E-08 tot_iter=     211 conv_iter=      86 cpu clock= 3.33E+00
 tran: time= 3.5358E-08 tot_iter=     215 conv_iter=      88 cpu clock= 3.33E+00
 tran: time= 4.0158E-08 tot_iter=     219 conv_iter=      90 cpu clock= 3.33E+00
 tran: time= 4.4958E-08 tot_iter=     223 conv_iter=      92 cpu clock= 3.33E+00
 tran: time= 4.8000E-08 tot_iter=     227 conv_iter=      94 cpu clock= 3.33E+00
 sweep: tran tran26   end,  cpu clock=  3.33E+00 memory=      1714 kb
 data: data=stimdata        index           =    2.70E+01
 dcop: begin dcop,  cpu clock=  3.33E+00
 dcop: end dcop,  cpu clock=  3.33E+00 memory=      1714 kb  tot_iter=     351
 output: /home/mrezaie/Downloads/ncx_inv/lib_all/and2/tOut_A_0000r/tOut_A_0000r.
 sweep: tran tran27   begin, stop_t=  4.80E-08 #sweeps= 481 cpu clock=  3.33E+00
 tran: time= 5.0276E-09 tot_iter=     164 conv_iter=      67 cpu clock= 3.34E+00
 tran: time= 1.0360E-08 tot_iter=     182 conv_iter=      73 cpu clock= 3.34E+00
 tran: time= 1.4752E-08 tot_iter=     187 conv_iter=      75 cpu clock= 3.34E+00
 tran: time= 1.9552E-08 tot_iter=     191 conv_iter=      77 cpu clock= 3.34E+00
 tran: time= 2.4352E-08 tot_iter=     195 conv_iter=      79 cpu clock= 3.34E+00
 tran: time= 2.9152E-08 tot_iter=     199 conv_iter=      81 cpu clock= 3.34E+00
 tran: time= 3.3952E-08 tot_iter=     203 conv_iter=      83 cpu clock= 3.34E+00
 tran: time= 3.8752E-08 tot_iter=     207 conv_iter=      85 cpu clock= 3.34E+00
 tran: time= 4.3552E-08 tot_iter=     211 conv_iter=      87 cpu clock= 3.34E+00
 tran: time= 4.8000E-08 tot_iter=     215 conv_iter=      89 cpu clock= 3.34E+00
 sweep: tran tran27   end,  cpu clock=  3.34E+00 memory=      1714 kb
 data: data=stimdata        index           =    2.80E+01
 dcop: begin dcop,  cpu clock=  3.34E+00
 dcop: end dcop,  cpu clock=  3.34E+00 memory=      1714 kb  tot_iter=     364
 output: /home/mrezaie/Downloads/ncx_inv/lib_all/and2/tOut_A_0000r/tOut_A_0000r.
 sweep: tran tran28   begin, stop_t=  4.80E-08 #sweeps= 481 cpu clock=  3.34E+00
 tran: time= 5.0049E-09 tot_iter=     168 conv_iter=      69 cpu clock= 3.34E+00
 tran: time= 1.0221E-08 tot_iter=     186 conv_iter=      75 cpu clock= 3.34E+00
 tran: time= 1.4576E-08 tot_iter=     191 conv_iter=      77 cpu clock= 3.34E+00
 tran: time= 1.9376E-08 tot_iter=     195 conv_iter=      79 cpu clock= 3.34E+00
 tran: time= 2.4176E-08 tot_iter=     199 conv_iter=      81 cpu clock= 3.35E+00
 tran: time= 2.8976E-08 tot_iter=     203 conv_iter=      83 cpu clock= 3.35E+00
 tran: time= 3.3776E-08 tot_iter=     207 conv_iter=      85 cpu clock= 3.35E+00
 tran: time= 3.8576E-08 tot_iter=     211 conv_iter=      87 cpu clock= 3.35E+00
 tran: time= 4.3376E-08 tot_iter=     215 conv_iter=      89 cpu clock= 3.35E+00
 tran: time= 4.8000E-08 tot_iter=     219 conv_iter=      91 cpu clock= 3.35E+00
 sweep: tran tran28   end,  cpu clock=  3.35E+00 memory=      1714 kb
 data: data=stimdata        index           =    2.90E+01
 dcop: begin dcop,  cpu clock=  3.35E+00
 dcop: end dcop,  cpu clock=  3.35E+00 memory=      1714 kb  tot_iter=     377
 output: /home/mrezaie/Downloads/ncx_inv/lib_all/and2/tOut_A_0000r/tOut_A_0000r.
 sweep: tran tran29   begin, stop_t=  4.80E-08 #sweeps= 481 cpu clock=  3.35E+00
 tran: time= 4.9839E-09 tot_iter=     168 conv_iter=      69 cpu clock= 3.35E+00
 tran: time= 1.0089E-08 tot_iter=     186 conv_iter=      75 cpu clock= 3.35E+00
 tran: time= 1.4408E-08 tot_iter=     191 conv_iter=      77 cpu clock= 3.35E+00
 tran: time= 1.9208E-08 tot_iter=     195 conv_iter=      79 cpu clock= 3.35E+00
 tran: time= 2.4008E-08 tot_iter=     199 conv_iter=      81 cpu clock= 3.35E+00
 tran: time= 2.8808E-08 tot_iter=     203 conv_iter=      83 cpu clock= 3.35E+00
 tran: time= 3.3608E-08 tot_iter=     207 conv_iter=      85 cpu clock= 3.35E+00
 tran: time= 3.8408E-08 tot_iter=     211 conv_iter=      87 cpu clock= 3.35E+00
 tran: time= 4.3208E-08 tot_iter=     215 conv_iter=      89 cpu clock= 3.35E+00
 tran: time= 4.8000E-08 tot_iter=     219 conv_iter=      91 cpu clock= 3.35E+00
 sweep: tran tran29   end,  cpu clock=  3.35E+00 memory=      1714 kb
 data: data=stimdata        index           =    3.00E+01
 dcop: begin dcop,  cpu clock=  3.35E+00
 dcop: end dcop,  cpu clock=  3.35E+00 memory=      1714 kb  tot_iter=     390
 output: /home/mrezaie/Downloads/ncx_inv/lib_all/and2/tOut_A_0000r/tOut_A_0000r.
 sweep: tran tran30   begin, stop_t=  4.80E-08 #sweeps= 481 cpu clock=  3.35E+00
 tran: time= 4.9603E-09 tot_iter=     172 conv_iter=      71 cpu clock= 3.36E+00
 tran: time= 9.9407E-09 tot_iter=     190 conv_iter=      77 cpu clock= 3.36E+00
 tran: time= 1.6579E-08 tot_iter=     197 conv_iter=      80 cpu clock= 3.36E+00
 tran: time= 2.1379E-08 tot_iter=     201 conv_iter=      82 cpu clock= 3.36E+00
 tran: time= 2.6179E-08 tot_iter=     205 conv_iter=      84 cpu clock= 3.36E+00
 tran: time= 3.0979E-08 tot_iter=     209 conv_iter=      86 cpu clock= 3.36E+00
 tran: time= 3.5779E-08 tot_iter=     213 conv_iter=      88 cpu clock= 3.36E+00
 tran: time= 4.0579E-08 tot_iter=     217 conv_iter=      90 cpu clock= 3.36E+00
 tran: time= 4.5379E-08 tot_iter=     221 conv_iter=      92 cpu clock= 3.36E+00
 tran: time= 4.8000E-08 tot_iter=     223 conv_iter=      93 cpu clock= 3.36E+00
 sweep: tran tran30   end,  cpu clock=  3.36E+00 memory=      1714 kb
 data: data=stimdata        index           =    3.10E+01
 dcop: begin dcop,  cpu clock=  3.36E+00
 dcop: end dcop,  cpu clock=  3.36E+00 memory=      1714 kb  tot_iter=     403
 output: /home/mrezaie/Downloads/ncx_inv/lib_all/and2/tOut_A_0000r/tOut_A_0000r.
 sweep: tran tran31   begin, stop_t=  4.80E-08 #sweeps= 481 cpu clock=  3.36E+00
 tran: time= 4.9269E-09 tot_iter=     170 conv_iter=      71 cpu clock= 3.37E+00
 tran: time= 9.7366E-09 tot_iter=     188 conv_iter=      77 cpu clock= 3.37E+00
 tran: time= 1.6250E-08 tot_iter=     195 conv_iter=      80 cpu clock= 3.37E+00
 tran: time= 2.1050E-08 tot_iter=     199 conv_iter=      82 cpu clock= 3.37E+00
 tran: time= 2.5850E-08 tot_iter=     203 conv_iter=      84 cpu clock= 3.37E+00
 tran: time= 3.0650E-08 tot_iter=     207 conv_iter=      86 cpu clock= 3.37E+00
 tran: time= 3.5450E-08 tot_iter=     211 conv_iter=      88 cpu clock= 3.37E+00
 tran: time= 4.0250E-08 tot_iter=     215 conv_iter=      90 cpu clock= 3.37E+00
 tran: time= 4.5050E-08 tot_iter=     219 conv_iter=      92 cpu clock= 3.37E+00
 tran: time= 4.8000E-08 tot_iter=     223 conv_iter=      94 cpu clock= 3.37E+00
 sweep: tran tran31   end,  cpu clock=  3.37E+00 memory=      1714 kb
 data: data=stimdata        index           =    3.20E+01
 dcop: begin dcop,  cpu clock=  3.37E+00
 dcop: end dcop,  cpu clock=  3.37E+00 memory=      1714 kb  tot_iter=     416
 output: /home/mrezaie/Downloads/ncx_inv/lib_all/and2/tOut_A_0000r/tOut_A_0000r.
 sweep: tran tran32   begin, stop_t=  4.80E-08 #sweeps= 481 cpu clock=  3.37E+00
 tran: time= 4.9285E-09 tot_iter=     167 conv_iter=      69 cpu clock= 3.37E+00
 tran: time= 9.7333E-09 tot_iter=     185 conv_iter=      75 cpu clock= 3.37E+00
 tran: time= 1.6241E-08 tot_iter=     192 conv_iter=      78 cpu clock= 3.38E+00
 tran: time= 2.1041E-08 tot_iter=     196 conv_iter=      80 cpu clock= 3.38E+00
 tran: time= 2.5841E-08 tot_iter=     200 conv_iter=      82 cpu clock= 3.38E+00
 tran: time= 3.0641E-08 tot_iter=     204 conv_iter=      84 cpu clock= 3.38E+00
 tran: time= 3.5441E-08 tot_iter=     208 conv_iter=      86 cpu clock= 3.38E+00
 tran: time= 4.0241E-08 tot_iter=     212 conv_iter=      88 cpu clock= 3.38E+00
 tran: time= 4.5041E-08 tot_iter=     216 conv_iter=      90 cpu clock= 3.38E+00
 tran: time= 4.8000E-08 tot_iter=     220 conv_iter=      92 cpu clock= 3.38E+00
 sweep: tran tran32   end,  cpu clock=  3.38E+00 memory=      1714 kb
 data: data=stimdata        index           =    3.30E+01
 dcop: begin dcop,  cpu clock=  3.38E+00
 dcop: end dcop,  cpu clock=  3.38E+00 memory=      1714 kb  tot_iter=     429
 output: /home/mrezaie/Downloads/ncx_inv/lib_all/and2/tOut_A_0000r/tOut_A_0000r.
 sweep: tran tran33   begin, stop_t=  4.80E-08 #sweeps= 481 cpu clock=  3.38E+00
 tran: time= 4.9116E-09 tot_iter=     166 conv_iter=      69 cpu clock= 3.38E+00
 tran: time= 9.6241E-09 tot_iter=     184 conv_iter=      75 cpu clock= 3.38E+00
 tran: time= 1.6063E-08 tot_iter=     191 conv_iter=      78 cpu clock= 3.38E+00
 tran: time= 2.0863E-08 tot_iter=     195 conv_iter=      80 cpu clock= 3.38E+00
 tran: time= 2.5663E-08 tot_iter=     199 conv_iter=      82 cpu clock= 3.38E+00
 tran: time= 3.0463E-08 tot_iter=     203 conv_iter=      84 cpu clock= 3.38E+00
 tran: time= 3.5263E-08 tot_iter=     207 conv_iter=      86 cpu clock= 3.38E+00
 tran: time= 4.0063E-08 tot_iter=     211 conv_iter=      88 cpu clock= 3.38E+00
 tran: time= 4.4863E-08 tot_iter=     215 conv_iter=      90 cpu clock= 3.38E+00
 tran: time= 4.8000E-08 tot_iter=     219 conv_iter=      92 cpu clock= 3.38E+00
 sweep: tran tran33   end,  cpu clock=  3.38E+00 memory=      1714 kb
 data: data=stimdata        index           =    3.40E+01
 dcop: begin dcop,  cpu clock=  3.38E+00
 dcop: end dcop,  cpu clock=  3.38E+00 memory=      1714 kb  tot_iter=     442
 output: /home/mrezaie/Downloads/ncx_inv/lib_all/and2/tOut_A_0000r/tOut_A_0000r.
 sweep: tran tran34   begin, stop_t=  4.80E-08 #sweeps= 481 cpu clock=  3.38E+00
 tran: time= 4.8867E-09 tot_iter=     166 conv_iter=      69 cpu clock= 3.39E+00
 tran: time= 1.1208E-08 tot_iter=     187 conv_iter=      76 cpu clock= 3.39E+00
 tran: time= 1.5811E-08 tot_iter=     191 conv_iter=      78 cpu clock= 3.39E+00
 tran: time= 2.0611E-08 tot_iter=     195 conv_iter=      80 cpu clock= 3.39E+00
 tran: time= 2.5411E-08 tot_iter=     199 conv_iter=      82 cpu clock= 3.39E+00
 tran: time= 3.0211E-08 tot_iter=     203 conv_iter=      84 cpu clock= 3.39E+00
 tran: time= 3.5011E-08 tot_iter=     207 conv_iter=      86 cpu clock= 3.39E+00
 tran: time= 3.9811E-08 tot_iter=     211 conv_iter=      88 cpu clock= 3.39E+00
 tran: time= 4.4611E-08 tot_iter=     215 conv_iter=      90 cpu clock= 3.39E+00
 tran: time= 4.8000E-08 tot_iter=     219 conv_iter=      92 cpu clock= 3.39E+00
 sweep: tran tran34   end,  cpu clock=  3.39E+00 memory=      1714 kb
 data: data=stimdata        index           =    3.50E+01
 dcop: begin dcop,  cpu clock=  3.39E+00
 dcop: end dcop,  cpu clock=  3.39E+00 memory=      1714 kb  tot_iter=     455
 output: /home/mrezaie/Downloads/ncx_inv/lib_all/and2/tOut_A_0000r/tOut_A_0000r.
 sweep: tran tran35   begin, stop_t=  4.80E-08 #sweeps= 481 cpu clock=  3.39E+00
 tran: time= 4.8721E-09 tot_iter=     167 conv_iter=      69 cpu clock= 3.40E+00
 tran: time= 1.1086E-08 tot_iter=     188 conv_iter=      76 cpu clock= 3.40E+00
 tran: time= 1.5656E-08 tot_iter=     192 conv_iter=      78 cpu clock= 3.40E+00
 tran: time= 2.0456E-08 tot_iter=     196 conv_iter=      80 cpu clock= 3.40E+00
 tran: time= 2.5256E-08 tot_iter=     200 conv_iter=      82 cpu clock= 3.40E+00
 tran: time= 3.0056E-08 tot_iter=     204 conv_iter=      84 cpu clock= 3.40E+00
 tran: time= 3.4856E-08 tot_iter=     208 conv_iter=      86 cpu clock= 3.40E+00
 tran: time= 3.9656E-08 tot_iter=     212 conv_iter=      88 cpu clock= 3.40E+00
 tran: time= 4.4456E-08 tot_iter=     216 conv_iter=      90 cpu clock= 3.40E+00
 tran: time= 4.8000E-08 tot_iter=     220 conv_iter=      92 cpu clock= 3.40E+00
 sweep: tran tran35   end,  cpu clock=  3.40E+00 memory=      1714 kb
 data: data=stimdata        index           =    3.60E+01
 dcop: begin dcop,  cpu clock=  3.40E+00
 dcop: end dcop,  cpu clock=  3.40E+00 memory=      1714 kb  tot_iter=     468
 output: /home/mrezaie/Downloads/ncx_inv/lib_all/and2/tOut_A_0000r/tOut_A_0000r.
 sweep: tran tran36   begin, stop_t=  4.80E-08 #sweeps= 481 cpu clock=  3.40E+00
 tran: time= 4.8582E-09 tot_iter=     167 conv_iter=      69 cpu clock= 3.40E+00
 tran: time= 1.0968E-08 tot_iter=     188 conv_iter=      76 cpu clock= 3.40E+00
 tran: time= 1.5506E-08 tot_iter=     192 conv_iter=      78 cpu clock= 3.40E+00
 tran: time= 2.0306E-08 tot_iter=     196 conv_iter=      80 cpu clock= 3.40E+00
 tran: time= 2.5106E-08 tot_iter=     200 conv_iter=      82 cpu clock= 3.41E+00
 tran: time= 2.9906E-08 tot_iter=     204 conv_iter=      84 cpu clock= 3.41E+00
 tran: time= 3.4706E-08 tot_iter=     208 conv_iter=      86 cpu clock= 3.41E+00
 tran: time= 3.9506E-08 tot_iter=     212 conv_iter=      88 cpu clock= 3.41E+00
 tran: time= 4.4306E-08 tot_iter=     216 conv_iter=      90 cpu clock= 3.41E+00
 tran: time= 4.8000E-08 tot_iter=     220 conv_iter=      92 cpu clock= 3.41E+00
 sweep: tran tran36   end,  cpu clock=  3.41E+00 memory=      1714 kb
 data: data=stimdata        index           =    3.70E+01
 dcop: begin dcop,  cpu clock=  3.41E+00
 dcop: end dcop,  cpu clock=  3.41E+00 memory=      1714 kb  tot_iter=     481
 output: /home/mrezaie/Downloads/ncx_inv/lib_all/and2/tOut_A_0000r/tOut_A_0000r.
 sweep: tran tran37   begin, stop_t=  4.80E-08 #sweeps= 481 cpu clock=  3.41E+00
 tran: time= 4.8451E-09 tot_iter=     167 conv_iter=      69 cpu clock= 3.41E+00
 tran: time= 1.0856E-08 tot_iter=     188 conv_iter=      76 cpu clock= 3.41E+00
 tran: time= 1.5365E-08 tot_iter=     192 conv_iter=      78 cpu clock= 3.41E+00
 tran: time= 2.0165E-08 tot_iter=     196 conv_iter=      80 cpu clock= 3.41E+00
 tran: time= 2.4965E-08 tot_iter=     200 conv_iter=      82 cpu clock= 3.41E+00
 tran: time= 2.9765E-08 tot_iter=     204 conv_iter=      84 cpu clock= 3.41E+00
 tran: time= 3.4565E-08 tot_iter=     208 conv_iter=      86 cpu clock= 3.41E+00
 tran: time= 3.9365E-08 tot_iter=     212 conv_iter=      88 cpu clock= 3.41E+00
 tran: time= 4.4165E-08 tot_iter=     216 conv_iter=      90 cpu clock= 3.41E+00
 tran: time= 4.8000E-08 tot_iter=     220 conv_iter=      92 cpu clock= 3.41E+00
 sweep: tran tran37   end,  cpu clock=  3.41E+00 memory=      1714 kb
 data: data=stimdata        index           =    3.80E+01
 dcop: begin dcop,  cpu clock=  3.41E+00
 dcop: end dcop,  cpu clock=  3.41E+00 memory=      1714 kb  tot_iter=     494
 output: /home/mrezaie/Downloads/ncx_inv/lib_all/and2/tOut_A_0000r/tOut_A_0000r.
 sweep: tran tran38   begin, stop_t=  4.80E-08 #sweeps= 481 cpu clock=  3.41E+00
 tran: time= 4.8285E-09 tot_iter=     171 conv_iter=      71 cpu clock= 3.42E+00
 tran: time= 1.0715E-08 tot_iter=     192 conv_iter=      78 cpu clock= 3.42E+00
 tran: time= 1.5185E-08 tot_iter=     197 conv_iter=      80 cpu clock= 3.42E+00
 tran: time= 1.9985E-08 tot_iter=     201 conv_iter=      82 cpu clock= 3.42E+00
 tran: time= 2.4785E-08 tot_iter=     205 conv_iter=      84 cpu clock= 3.42E+00
 tran: time= 2.9585E-08 tot_iter=     209 conv_iter=      86 cpu clock= 3.42E+00
 tran: time= 3.4385E-08 tot_iter=     213 conv_iter=      88 cpu clock= 3.42E+00
 tran: time= 3.9185E-08 tot_iter=     217 conv_iter=      90 cpu clock= 3.42E+00
 tran: time= 4.3985E-08 tot_iter=     221 conv_iter=      92 cpu clock= 3.42E+00
 tran: time= 4.8000E-08 tot_iter=     225 conv_iter=      94 cpu clock= 3.42E+00
 sweep: tran tran38   end,  cpu clock=  3.42E+00 memory=      1714 kb
 data: data=stimdata        index           =    3.90E+01
 dcop: begin dcop,  cpu clock=  3.42E+00
 dcop: end dcop,  cpu clock=  3.42E+00 memory=      1714 kb  tot_iter=     507
 output: /home/mrezaie/Downloads/ncx_inv/lib_all/and2/tOut_A_0000r/tOut_A_0000r.
 sweep: tran tran39   begin, stop_t=  4.80E-08 #sweeps= 481 cpu clock=  3.42E+00
 tran: time= 4.8190E-09 tot_iter=     171 conv_iter=      71 cpu clock= 3.43E+00
 tran: time= 1.0635E-08 tot_iter=     192 conv_iter=      78 cpu clock= 3.43E+00
 tran: time= 1.5084E-08 tot_iter=     197 conv_iter=      80 cpu clock= 3.43E+00
 tran: time= 1.9884E-08 tot_iter=     201 conv_iter=      82 cpu clock= 3.43E+00
 tran: time= 2.4684E-08 tot_iter=     205 conv_iter=      84 cpu clock= 3.43E+00
 tran: time= 2.9484E-08 tot_iter=     209 conv_iter=      86 cpu clock= 3.43E+00
 tran: time= 3.4284E-08 tot_iter=     213 conv_iter=      88 cpu clock= 3.43E+00
 tran: time= 3.9084E-08 tot_iter=     217 conv_iter=      90 cpu clock= 3.43E+00
 tran: time= 4.3884E-08 tot_iter=     221 conv_iter=      92 cpu clock= 3.43E+00
 tran: time= 4.8000E-08 tot_iter=     225 conv_iter=      94 cpu clock= 3.43E+00
 sweep: tran tran39   end,  cpu clock=  3.43E+00 memory=      1714 kb
 data: data=stimdata        index           =    4.00E+01
 dcop: begin dcop,  cpu clock=  3.43E+00
 dcop: end dcop,  cpu clock=  3.43E+00 memory=      1714 kb  tot_iter=     520
 output: /home/mrezaie/Downloads/ncx_inv/lib_all/and2/tOut_A_0000r/tOut_A_0000r.
 sweep: tran tran40   begin, stop_t=  4.80E-08 #sweeps= 481 cpu clock=  3.43E+00
 tran: time= 4.9343E-09 tot_iter=     180 conv_iter=      74 cpu clock= 3.43E+00
 tran: time= 1.1342E-08 tot_iter=     201 conv_iter=      81 cpu clock= 3.44E+00
 tran: time= 1.5972E-08 tot_iter=     206 conv_iter=      83 cpu clock= 3.44E+00
 tran: time= 2.0772E-08 tot_iter=     210 conv_iter=      85 cpu clock= 3.44E+00
 tran: time= 2.5572E-08 tot_iter=     214 conv_iter=      87 cpu clock= 3.44E+00
 tran: time= 3.0372E-08 tot_iter=     218 conv_iter=      89 cpu clock= 3.44E+00
 tran: time= 3.5172E-08 tot_iter=     222 conv_iter=      91 cpu clock= 3.44E+00
 tran: time= 3.9972E-08 tot_iter=     226 conv_iter=      93 cpu clock= 3.44E+00
 tran: time= 4.4772E-08 tot_iter=     230 conv_iter=      95 cpu clock= 3.44E+00
 tran: time= 4.8000E-08 tot_iter=     234 conv_iter=      97 cpu clock= 3.44E+00
 sweep: tran tran40   end,  cpu clock=  3.44E+00 memory=      1714 kb
 data: data=stimdata        index           =    4.10E+01
 dcop: begin dcop,  cpu clock=  3.44E+00
 dcop: end dcop,  cpu clock=  3.44E+00 memory=      1714 kb  tot_iter=     533
 output: /home/mrezaie/Downloads/ncx_inv/lib_all/and2/tOut_A_0000r/tOut_A_0000r.
 sweep: tran tran41   begin, stop_t=  4.80E-08 #sweeps= 481 cpu clock=  3.44E+00
 tran: time= 4.9246E-09 tot_iter=     181 conv_iter=      74 cpu clock= 3.44E+00
 tran: time= 1.1251E-08 tot_iter=     202 conv_iter=      81 cpu clock= 3.44E+00
 tran: time= 1.5856E-08 tot_iter=     207 conv_iter=      83 cpu clock= 3.44E+00
 tran: time= 2.0656E-08 tot_iter=     211 conv_iter=      85 cpu clock= 3.44E+00
 tran: time= 2.5456E-08 tot_iter=     215 conv_iter=      87 cpu clock= 3.44E+00
 tran: time= 3.0256E-08 tot_iter=     219 conv_iter=      89 cpu clock= 3.44E+00
 tran: time= 3.5056E-08 tot_iter=     223 conv_iter=      91 cpu clock= 3.44E+00
 tran: time= 3.9856E-08 tot_iter=     227 conv_iter=      93 cpu clock= 3.44E+00
 tran: time= 4.4656E-08 tot_iter=     231 conv_iter=      95 cpu clock= 3.44E+00
 tran: time= 4.8000E-08 tot_iter=     235 conv_iter=      97 cpu clock= 3.44E+00
 sweep: tran tran41   end,  cpu clock=  3.44E+00 memory=      1714 kb
 data: data=stimdata        index           =    4.20E+01
 dcop: begin dcop,  cpu clock=  3.45E+00
 dcop: end dcop,  cpu clock=  3.45E+00 memory=      1714 kb  tot_iter=     546
 output: /home/mrezaie/Downloads/ncx_inv/lib_all/and2/tOut_A_0000r/tOut_A_0000r.
 sweep: tran tran42   begin, stop_t=  4.80E-08 #sweeps= 481 cpu clock=  3.45E+00
 tran: time= 4.9156E-09 tot_iter=     181 conv_iter=      74 cpu clock= 3.45E+00
 tran: time= 1.1166E-08 tot_iter=     202 conv_iter=      81 cpu clock= 3.45E+00
 tran: time= 1.5749E-08 tot_iter=     207 conv_iter=      83 cpu clock= 3.45E+00
 tran: time= 2.0549E-08 tot_iter=     211 conv_iter=      85 cpu clock= 3.45E+00
 tran: time= 2.5349E-08 tot_iter=     215 conv_iter=      87 cpu clock= 3.45E+00
 tran: time= 3.0149E-08 tot_iter=     219 conv_iter=      89 cpu clock= 3.45E+00
 tran: time= 3.4949E-08 tot_iter=     223 conv_iter=      91 cpu clock= 3.45E+00
 tran: time= 3.9749E-08 tot_iter=     227 conv_iter=      93 cpu clock= 3.45E+00
 tran: time= 4.4549E-08 tot_iter=     231 conv_iter=      95 cpu clock= 3.45E+00
 tran: time= 4.8000E-08 tot_iter=     235 conv_iter=      97 cpu clock= 3.45E+00
 sweep: tran tran42   end,  cpu clock=  3.45E+00 memory=      1714 kb
 data: data=stimdata        index           =    4.30E+01
 dcop: begin dcop,  cpu clock=  3.45E+00
 dcop: end dcop,  cpu clock=  3.45E+00 memory=      1714 kb  tot_iter=     559
 output: /home/mrezaie/Downloads/ncx_inv/lib_all/and2/tOut_A_0000r/tOut_A_0000r.
 sweep: tran tran43   begin, stop_t=  4.80E-08 #sweeps= 481 cpu clock=  3.45E+00
 tran: time= 4.9072E-09 tot_iter=     181 conv_iter=      74 cpu clock= 3.46E+00
 tran: time= 1.1087E-08 tot_iter=     202 conv_iter=      81 cpu clock= 3.46E+00
 tran: time= 1.5648E-08 tot_iter=     207 conv_iter=      83 cpu clock= 3.46E+00
 tran: time= 2.0448E-08 tot_iter=     211 conv_iter=      85 cpu clock= 3.46E+00
 tran: time= 2.5248E-08 tot_iter=     215 conv_iter=      87 cpu clock= 3.46E+00
 tran: time= 3.0048E-08 tot_iter=     219 conv_iter=      89 cpu clock= 3.46E+00
 tran: time= 3.4848E-08 tot_iter=     223 conv_iter=      91 cpu clock= 3.46E+00
 tran: time= 3.9648E-08 tot_iter=     227 conv_iter=      93 cpu clock= 3.46E+00
 tran: time= 4.4448E-08 tot_iter=     231 conv_iter=      95 cpu clock= 3.46E+00
 tran: time= 4.8000E-08 tot_iter=     235 conv_iter=      97 cpu clock= 3.46E+00
 sweep: tran tran43   end,  cpu clock=  3.46E+00 memory=      1714 kb
 data: data=stimdata        index           =    4.40E+01
 dcop: begin dcop,  cpu clock=  3.46E+00
 dcop: end dcop,  cpu clock=  3.46E+00 memory=      1714 kb  tot_iter=     572
 output: /home/mrezaie/Downloads/ncx_inv/lib_all/and2/tOut_A_0000r/tOut_A_0000r.
 sweep: tran tran44   begin, stop_t=  4.80E-08 #sweeps= 481 cpu clock=  3.46E+00
 tran: time= 4.8996E-09 tot_iter=     180 conv_iter=      75 cpu clock= 3.47E+00
 tran: time= 1.1014E-08 tot_iter=     201 conv_iter=      82 cpu clock= 3.47E+00
 tran: time= 1.5555E-08 tot_iter=     206 conv_iter=      84 cpu clock= 3.47E+00
 tran: time= 2.0355E-08 tot_iter=     210 conv_iter=      86 cpu clock= 3.47E+00
 tran: time= 2.5155E-08 tot_iter=     214 conv_iter=      88 cpu clock= 3.47E+00
 tran: time= 2.9955E-08 tot_iter=     218 conv_iter=      90 cpu clock= 3.47E+00
 tran: time= 3.4755E-08 tot_iter=     222 conv_iter=      92 cpu clock= 3.47E+00
 tran: time= 3.9555E-08 tot_iter=     226 conv_iter=      94 cpu clock= 3.47E+00
 tran: time= 4.4355E-08 tot_iter=     230 conv_iter=      96 cpu clock= 3.47E+00
 tran: time= 4.8000E-08 tot_iter=     234 conv_iter=      98 cpu clock= 3.47E+00
 sweep: tran tran44   end,  cpu clock=  3.47E+00 memory=      1714 kb
 data: data=stimdata        index           =    4.50E+01
 dcop: begin dcop,  cpu clock=  3.47E+00
 dcop: end dcop,  cpu clock=  3.47E+00 memory=      1714 kb  tot_iter=     585
 output: /home/mrezaie/Downloads/ncx_inv/lib_all/and2/tOut_A_0000r/tOut_A_0000r.
 sweep: tran tran45   begin, stop_t=  4.80E-08 #sweeps= 481 cpu clock=  3.47E+00
 tran: time= 4.8855E-09 tot_iter=     181 conv_iter=      74 cpu clock= 3.48E+00
 tran: time= 1.0893E-08 tot_iter=     202 conv_iter=      81 cpu clock= 3.48E+00
 tran: time= 1.5401E-08 tot_iter=     207 conv_iter=      83 cpu clock= 3.48E+00
 tran: time= 2.0201E-08 tot_iter=     211 conv_iter=      85 cpu clock= 3.48E+00
 tran: time= 2.5001E-08 tot_iter=     215 conv_iter=      87 cpu clock= 3.48E+00
 tran: time= 2.9801E-08 tot_iter=     219 conv_iter=      89 cpu clock= 3.48E+00
 tran: time= 3.4601E-08 tot_iter=     223 conv_iter=      91 cpu clock= 3.48E+00
 tran: time= 3.9401E-08 tot_iter=     227 conv_iter=      93 cpu clock= 3.48E+00
 tran: time= 4.4201E-08 tot_iter=     231 conv_iter=      95 cpu clock= 3.48E+00
 tran: time= 4.8000E-08 tot_iter=     235 conv_iter=      97 cpu clock= 3.48E+00
 sweep: tran tran45   end,  cpu clock=  3.48E+00 memory=      1714 kb
 data: data=stimdata        index           =    4.60E+01
 dcop: begin dcop,  cpu clock=  3.48E+00
 dcop: end dcop,  cpu clock=  3.48E+00 memory=      1714 kb  tot_iter=     598
 output: /home/mrezaie/Downloads/ncx_inv/lib_all/and2/tOut_A_0000r/tOut_A_0000r.
 sweep: tran tran46   begin, stop_t=  4.80E-08 #sweeps= 481 cpu clock=  3.48E+00
 tran: time= 4.8850E-09 tot_iter=     183 conv_iter=      76 cpu clock= 3.48E+00
 tran: time= 1.0875E-08 tot_iter=     204 conv_iter=      83 cpu clock= 3.48E+00
 tran: time= 1.5378E-08 tot_iter=     209 conv_iter=      85 cpu clock= 3.48E+00
 tran: time= 2.0178E-08 tot_iter=     213 conv_iter=      87 cpu clock= 3.48E+00
 tran: time= 2.4978E-08 tot_iter=     217 conv_iter=      89 cpu clock= 3.48E+00
 tran: time= 2.9778E-08 tot_iter=     221 conv_iter=      91 cpu clock= 3.48E+00
 tran: time= 3.4578E-08 tot_iter=     225 conv_iter=      93 cpu clock= 3.48E+00
 tran: time= 3.9378E-08 tot_iter=     229 conv_iter=      95 cpu clock= 3.48E+00
 tran: time= 4.4178E-08 tot_iter=     233 conv_iter=      97 cpu clock= 3.48E+00
 tran: time= 4.8000E-08 tot_iter=     237 conv_iter=      99 cpu clock= 3.48E+00
 sweep: tran tran46   end,  cpu clock=  3.48E+00 memory=      1714 kb
 data: data=stimdata        index           =    4.70E+01
 dcop: begin dcop,  cpu clock=  3.49E+00
 dcop: end dcop,  cpu clock=  3.49E+00 memory=      1714 kb  tot_iter=     611
 output: /home/mrezaie/Downloads/ncx_inv/lib_all/and2/tOut_A_0000r/tOut_A_0000r.
 sweep: tran tran47   begin, stop_t=  4.80E-08 #sweeps= 481 cpu clock=  3.49E+00
 tran: time= 4.8788E-09 tot_iter=     179 conv_iter=      73 cpu clock= 3.49E+00
 tran: time= 1.0814E-08 tot_iter=     200 conv_iter=      80 cpu clock= 3.49E+00
 tran: time= 1.5300E-08 tot_iter=     205 conv_iter=      82 cpu clock= 3.49E+00
 tran: time= 2.0100E-08 tot_iter=     209 conv_iter=      84 cpu clock= 3.49E+00
 tran: time= 2.4900E-08 tot_iter=     213 conv_iter=      86 cpu clock= 3.49E+00
 tran: time= 2.9700E-08 tot_iter=     217 conv_iter=      88 cpu clock= 3.49E+00
 tran: time= 3.4500E-08 tot_iter=     221 conv_iter=      90 cpu clock= 3.49E+00
 tran: time= 3.9300E-08 tot_iter=     225 conv_iter=      92 cpu clock= 3.49E+00
 tran: time= 4.4100E-08 tot_iter=     229 conv_iter=      94 cpu clock= 3.49E+00
 tran: time= 4.8000E-08 tot_iter=     233 conv_iter=      96 cpu clock= 3.49E+00
 sweep: tran tran47   end,  cpu clock=  3.49E+00 memory=      1714 kb
 data: data=stimdata        index           =    4.80E+01
 dcop: begin dcop,  cpu clock=  3.49E+00
 dcop: end dcop,  cpu clock=  3.49E+00 memory=      1714 kb  tot_iter=     624
 output: /home/mrezaie/Downloads/ncx_inv/lib_all/and2/tOut_A_0000r/tOut_A_0000r.
 sweep: tran tran48   begin, stop_t=  4.80E-08 #sweeps= 481 cpu clock=  3.49E+00
 tran: time= 4.8716E-09 tot_iter=     180 conv_iter=      73 cpu clock= 3.50E+00
 tran: time= 1.0747E-08 tot_iter=     201 conv_iter=      80 cpu clock= 3.50E+00
 tran: time= 1.5215E-08 tot_iter=     206 conv_iter=      82 cpu clock= 3.50E+00
 tran: time= 2.0015E-08 tot_iter=     210 conv_iter=      84 cpu clock= 3.50E+00
 tran: time= 2.4815E-08 tot_iter=     214 conv_iter=      86 cpu clock= 3.50E+00
 tran: time= 2.9615E-08 tot_iter=     218 conv_iter=      88 cpu clock= 3.50E+00
 tran: time= 3.4415E-08 tot_iter=     222 conv_iter=      90 cpu clock= 3.50E+00
 tran: time= 3.9215E-08 tot_iter=     226 conv_iter=      92 cpu clock= 3.50E+00
 tran: time= 4.4015E-08 tot_iter=     230 conv_iter=      94 cpu clock= 3.50E+00
 tran: time= 4.8000E-08 tot_iter=     234 conv_iter=      96 cpu clock= 3.50E+00
 sweep: tran tran48   end,  cpu clock=  3.50E+00 memory=      1714 kb
 data: data=stimdata        index           =    4.90E+01
 dcop: begin dcop,  cpu clock=  3.50E+00
 dcop: end dcop,  cpu clock=  3.50E+00 memory=      1714 kb  tot_iter=     637
 output: /home/mrezaie/Downloads/ncx_inv/lib_all/and2/tOut_A_0000r/tOut_A_0000r.
 sweep: tran tran49   begin, stop_t=  4.80E-08 #sweeps= 481 cpu clock=  3.50E+00
 tran: time= 4.8654E-09 tot_iter=     175 conv_iter=      71 cpu clock= 3.51E+00
 tran: time= 1.0688E-08 tot_iter=     196 conv_iter=      78 cpu clock= 3.51E+00
 tran: time= 1.5138E-08 tot_iter=     201 conv_iter=      80 cpu clock= 3.51E+00
 tran: time= 1.9938E-08 tot_iter=     205 conv_iter=      82 cpu clock= 3.51E+00
 tran: time= 2.4738E-08 tot_iter=     209 conv_iter=      84 cpu clock= 3.51E+00
 tran: time= 2.9538E-08 tot_iter=     213 conv_iter=      86 cpu clock= 3.51E+00
 tran: time= 3.4338E-08 tot_iter=     217 conv_iter=      88 cpu clock= 3.51E+00
 tran: time= 3.9138E-08 tot_iter=     221 conv_iter=      90 cpu clock= 3.51E+00
 tran: time= 4.3938E-08 tot_iter=     225 conv_iter=      92 cpu clock= 3.51E+00
 tran: time= 4.8000E-08 tot_iter=     229 conv_iter=      94 cpu clock= 3.51E+00
 sweep: tran tran49   end,  cpu clock=  3.51E+00 memory=      1714 kb
 data: data=stimdata        index           =    5.00E+01
 dcop: begin dcop,  cpu clock=  3.51E+00
 dcop: end dcop,  cpu clock=  3.51E+00 memory=      1714 kb  tot_iter=     650
 output: /home/mrezaie/Downloads/ncx_inv/lib_all/and2/tOut_A_0000r/tOut_A_0000r.
 sweep: tran tran50   begin, stop_t=  4.80E-08 #sweeps= 481 cpu clock=  3.51E+00
 tran: time= 4.8592E-09 tot_iter=     187 conv_iter=      76 cpu clock= 3.51E+00
 tran: time= 1.0629E-08 tot_iter=     208 conv_iter=      83 cpu clock= 3.52E+00
 tran: time= 1.5063E-08 tot_iter=     213 conv_iter=      85 cpu clock= 3.52E+00
 tran: time= 1.9863E-08 tot_iter=     217 conv_iter=      87 cpu clock= 3.52E+00
 tran: time= 2.4663E-08 tot_iter=     221 conv_iter=      89 cpu clock= 3.52E+00
 tran: time= 2.9463E-08 tot_iter=     225 conv_iter=      91 cpu clock= 3.52E+00
 tran: time= 3.4263E-08 tot_iter=     229 conv_iter=      93 cpu clock= 3.52E+00
 tran: time= 3.9063E-08 tot_iter=     233 conv_iter=      95 cpu clock= 3.52E+00
 tran: time= 4.3863E-08 tot_iter=     237 conv_iter=      97 cpu clock= 3.52E+00
 tran: time= 4.8000E-08 tot_iter=     241 conv_iter=      99 cpu clock= 3.52E+00
 sweep: tran tran50   end,  cpu clock=  3.52E+00 memory=      1714 kb
 data: data=stimdata        index           =    5.10E+01
 dcop: begin dcop,  cpu clock=  3.52E+00
 dcop: end dcop,  cpu clock=  3.52E+00 memory=      1714 kb  tot_iter=     663
 output: /home/mrezaie/Downloads/ncx_inv/lib_all/and2/tOut_A_0000r/tOut_A_0000r.
 sweep: tran tran51   begin, stop_t=  4.80E-08 #sweeps= 481 cpu clock=  3.52E+00
 tran: time= 4.8910E-09 tot_iter=     197 conv_iter=      80 cpu clock= 3.52E+00
 tran: time= 1.0861E-08 tot_iter=     218 conv_iter=      87 cpu clock= 3.52E+00
 tran: time= 1.5350E-08 tot_iter=     223 conv_iter=      89 cpu clock= 3.52E+00
 tran: time= 2.0150E-08 tot_iter=     227 conv_iter=      91 cpu clock= 3.52E+00
 tran: time= 2.4950E-08 tot_iter=     231 conv_iter=      93 cpu clock= 3.52E+00
 tran: time= 2.9750E-08 tot_iter=     235 conv_iter=      95 cpu clock= 3.52E+00
 tran: time= 3.4550E-08 tot_iter=     239 conv_iter=      97 cpu clock= 3.52E+00
 tran: time= 3.9350E-08 tot_iter=     243 conv_iter=      99 cpu clock= 3.52E+00
 tran: time= 4.4150E-08 tot_iter=     247 conv_iter=     101 cpu clock= 3.53E+00
 tran: time= 4.8000E-08 tot_iter=     251 conv_iter=     103 cpu clock= 3.53E+00
 sweep: tran tran51   end,  cpu clock=  3.53E+00 memory=      1714 kb
 data: data=stimdata        index           =    5.20E+01
 dcop: begin dcop,  cpu clock=  3.53E+00
 dcop: end dcop,  cpu clock=  3.53E+00 memory=      1714 kb  tot_iter=     676
 output: /home/mrezaie/Downloads/ncx_inv/lib_all/and2/tOut_A_0000r/tOut_A_0000r.
 sweep: tran tran52   begin, stop_t=  4.80E-08 #sweeps= 481 cpu clock=  3.53E+00
 tran: time= 4.8483E-09 tot_iter=     195 conv_iter=      79 cpu clock= 3.53E+00
 tran: time= 1.0523E-08 tot_iter=     216 conv_iter=      86 cpu clock= 3.53E+00
 tran: time= 1.4927E-08 tot_iter=     221 conv_iter=      88 cpu clock= 3.53E+00
 tran: time= 1.9727E-08 tot_iter=     225 conv_iter=      90 cpu clock= 3.53E+00
 tran: time= 2.4527E-08 tot_iter=     229 conv_iter=      92 cpu clock= 3.53E+00
 tran: time= 2.9327E-08 tot_iter=     233 conv_iter=      94 cpu clock= 3.53E+00
 tran: time= 3.4127E-08 tot_iter=     237 conv_iter=      96 cpu clock= 3.53E+00
 tran: time= 3.8927E-08 tot_iter=     241 conv_iter=      98 cpu clock= 3.53E+00
 tran: time= 4.3727E-08 tot_iter=     245 conv_iter=     100 cpu clock= 3.53E+00
 tran: time= 4.8000E-08 tot_iter=     249 conv_iter=     102 cpu clock= 3.53E+00
 sweep: tran tran52   end,  cpu clock=  3.53E+00 memory=      1714 kb
 data: data=stimdata        index           =    5.30E+01
 dcop: begin dcop,  cpu clock=  3.53E+00
 dcop: end dcop,  cpu clock=  3.54E+00 memory=      1714 kb  tot_iter=     689
 output: /home/mrezaie/Downloads/ncx_inv/lib_all/and2/tOut_A_0000r/tOut_A_0000r.
 sweep: tran tran53   begin, stop_t=  4.80E-08 #sweeps= 481 cpu clock=  3.54E+00
 tran: time= 4.9202E-09 tot_iter=     190 conv_iter=      77 cpu clock= 3.54E+00
 tran: time= 1.0583E-08 tot_iter=     211 conv_iter=      84 cpu clock= 3.54E+00
 tran: time= 1.5002E-08 tot_iter=     216 conv_iter=      86 cpu clock= 3.54E+00
 tran: time= 1.9802E-08 tot_iter=     220 conv_iter=      88 cpu clock= 3.54E+00
 tran: time= 2.4602E-08 tot_iter=     224 conv_iter=      90 cpu clock= 3.54E+00
 tran: time= 2.9402E-08 tot_iter=     228 conv_iter=      92 cpu clock= 3.54E+00
 tran: time= 3.4202E-08 tot_iter=     232 conv_iter=      94 cpu clock= 3.54E+00
 tran: time= 3.9002E-08 tot_iter=     236 conv_iter=      96 cpu clock= 3.54E+00
 tran: time= 4.3802E-08 tot_iter=     240 conv_iter=      98 cpu clock= 3.54E+00
 tran: time= 4.8000E-08 tot_iter=     244 conv_iter=     100 cpu clock= 3.54E+00
 sweep: tran tran53   end,  cpu clock=  3.54E+00 memory=      1714 kb
 data: data=stimdata        index           =    5.40E+01
 dcop: begin dcop,  cpu clock=  3.54E+00
 dcop: end dcop,  cpu clock=  3.54E+00 memory=      1714 kb  tot_iter=     702
 output: /home/mrezaie/Downloads/ncx_inv/lib_all/and2/tOut_A_0000r/tOut_A_0000r.
 sweep: tran tran54   begin, stop_t=  4.80E-08 #sweeps= 481 cpu clock=  3.54E+00
 tran: time= 4.9145E-09 tot_iter=     185 conv_iter=      75 cpu clock= 3.55E+00
 tran: time= 1.0523E-08 tot_iter=     206 conv_iter=      82 cpu clock= 3.55E+00
 tran: time= 1.4923E-08 tot_iter=     211 conv_iter=      84 cpu clock= 3.55E+00
 tran: time= 1.9723E-08 tot_iter=     215 conv_iter=      86 cpu clock= 3.55E+00
 tran: time= 2.4523E-08 tot_iter=     219 conv_iter=      88 cpu clock= 3.55E+00
 tran: time= 2.9323E-08 tot_iter=     223 conv_iter=      90 cpu clock= 3.55E+00
 tran: time= 3.4123E-08 tot_iter=     227 conv_iter=      92 cpu clock= 3.55E+00
 tran: time= 3.8923E-08 tot_iter=     231 conv_iter=      94 cpu clock= 3.55E+00
 tran: time= 4.3723E-08 tot_iter=     235 conv_iter=      96 cpu clock= 3.55E+00
 tran: time= 4.8000E-08 tot_iter=     239 conv_iter=      98 cpu clock= 3.55E+00
 sweep: tran tran54   end,  cpu clock=  3.55E+00 memory=      1714 kb
 data: data=stimdata        index           =    5.50E+01
 dcop: begin dcop,  cpu clock=  3.55E+00
 dcop: end dcop,  cpu clock=  3.55E+00 memory=      1714 kb  tot_iter=     715
 output: /home/mrezaie/Downloads/ncx_inv/lib_all/and2/tOut_A_0000r/tOut_A_0000r.
 sweep: tran tran55   begin, stop_t=  4.80E-08 #sweeps= 481 cpu clock=  3.55E+00
 tran: time= 4.9110E-09 tot_iter=     184 conv_iter=      75 cpu clock= 3.56E+00
 tran: time= 1.0480E-08 tot_iter=     205 conv_iter=      82 cpu clock= 3.56E+00
 tran: time= 1.4868E-08 tot_iter=     210 conv_iter=      84 cpu clock= 3.56E+00
 tran: time= 1.9668E-08 tot_iter=     214 conv_iter=      86 cpu clock= 3.56E+00
 tran: time= 2.4468E-08 tot_iter=     218 conv_iter=      88 cpu clock= 3.56E+00
 tran: time= 2.9268E-08 tot_iter=     222 conv_iter=      90 cpu clock= 3.56E+00
 tran: time= 3.4068E-08 tot_iter=     226 conv_iter=      92 cpu clock= 3.56E+00
 tran: time= 3.8868E-08 tot_iter=     230 conv_iter=      94 cpu clock= 3.56E+00
 tran: time= 4.3668E-08 tot_iter=     234 conv_iter=      96 cpu clock= 3.56E+00
 tran: time= 4.8000E-08 tot_iter=     238 conv_iter=      98 cpu clock= 3.56E+00
 sweep: tran tran55   end,  cpu clock=  3.56E+00 memory=      1714 kb
 data: data=stimdata        index           =    5.60E+01
 dcop: begin dcop,  cpu clock=  3.56E+00
 dcop: end dcop,  cpu clock=  3.56E+00 memory=      1714 kb  tot_iter=     728
 output: /home/mrezaie/Downloads/ncx_inv/lib_all/and2/tOut_A_0000r/tOut_A_0000r.
 sweep: tran tran56   begin, stop_t=  4.80E-08 #sweeps= 481 cpu clock=  3.56E+00
 tran: time= 4.8989E-09 tot_iter=     180 conv_iter=      74 cpu clock= 3.56E+00
 tran: time= 1.0370E-08 tot_iter=     201 conv_iter=      81 cpu clock= 3.56E+00
 tran: time= 1.4727E-08 tot_iter=     206 conv_iter=      83 cpu clock= 3.56E+00
 tran: time= 1.9527E-08 tot_iter=     210 conv_iter=      85 cpu clock= 3.56E+00
 tran: time= 2.4327E-08 tot_iter=     214 conv_iter=      87 cpu clock= 3.56E+00
 tran: time= 2.9127E-08 tot_iter=     218 conv_iter=      89 cpu clock= 3.56E+00
 tran: time= 3.3927E-08 tot_iter=     222 conv_iter=      91 cpu clock= 3.56E+00
 tran: time= 3.8727E-08 tot_iter=     226 conv_iter=      93 cpu clock= 3.56E+00
 tran: time= 4.3527E-08 tot_iter=     230 conv_iter=      95 cpu clock= 3.57E+00
 tran: time= 4.8000E-08 tot_iter=     234 conv_iter=      97 cpu clock= 3.57E+00
 sweep: tran tran56   end,  cpu clock=  3.57E+00 memory=      1714 kb
 data: data=stimdata        index           =    5.70E+01
 dcop: begin dcop,  cpu clock=  3.57E+00
 dcop: end dcop,  cpu clock=  3.57E+00 memory=      1714 kb  tot_iter=     741
 output: /home/mrezaie/Downloads/ncx_inv/lib_all/and2/tOut_A_0000r/tOut_A_0000r.
 sweep: tran tran57   begin, stop_t=  4.80E-08 #sweeps= 481 cpu clock=  3.57E+00
 tran: time= 4.8870E-09 tot_iter=     180 conv_iter=      74 cpu clock= 3.57E+00
 tran: time= 1.0261E-08 tot_iter=     201 conv_iter=      81 cpu clock= 3.57E+00
 tran: time= 1.4586E-08 tot_iter=     206 conv_iter=      83 cpu clock= 3.57E+00
 tran: time= 1.9386E-08 tot_iter=     210 conv_iter=      85 cpu clock= 3.57E+00
 tran: time= 2.4186E-08 tot_iter=     214 conv_iter=      87 cpu clock= 3.57E+00
 tran: time= 2.8986E-08 tot_iter=     218 conv_iter=      89 cpu clock= 3.57E+00
 tran: time= 3.3786E-08 tot_iter=     222 conv_iter=      91 cpu clock= 3.57E+00
 tran: time= 3.8586E-08 tot_iter=     226 conv_iter=      93 cpu clock= 3.57E+00
 tran: time= 4.3386E-08 tot_iter=     230 conv_iter=      95 cpu clock= 3.57E+00
 tran: time= 4.8000E-08 tot_iter=     234 conv_iter=      97 cpu clock= 3.57E+00
 sweep: tran tran57   end,  cpu clock=  3.57E+00 memory=      1714 kb
 data: data=stimdata        index           =    5.80E+01
 dcop: begin dcop,  cpu clock=  3.57E+00
 dcop: end dcop,  cpu clock=  3.57E+00 memory=      1714 kb  tot_iter=     754
 output: /home/mrezaie/Downloads/ncx_inv/lib_all/and2/tOut_A_0000r/tOut_A_0000r.
 sweep: tran tran58   begin, stop_t=  4.80E-08 #sweeps= 481 cpu clock=  3.57E+00
 tran: time= 4.8832E-09 tot_iter=     180 conv_iter=      74 cpu clock= 3.58E+00
 tran: time= 1.0216E-08 tot_iter=     201 conv_iter=      81 cpu clock= 3.58E+00
 tran: time= 1.4518E-08 tot_iter=     206 conv_iter=      83 cpu clock= 3.58E+00
 tran: time= 1.9318E-08 tot_iter=     210 conv_iter=      85 cpu clock= 3.58E+00
 tran: time= 2.4118E-08 tot_iter=     214 conv_iter=      87 cpu clock= 3.58E+00
 tran: time= 2.8918E-08 tot_iter=     218 conv_iter=      89 cpu clock= 3.58E+00
 tran: time= 3.3718E-08 tot_iter=     222 conv_iter=      91 cpu clock= 3.58E+00
 tran: time= 3.8518E-08 tot_iter=     226 conv_iter=      93 cpu clock= 3.58E+00
 tran: time= 4.3318E-08 tot_iter=     230 conv_iter=      95 cpu clock= 3.58E+00
 tran: time= 4.8000E-08 tot_iter=     234 conv_iter=      97 cpu clock= 3.58E+00
 sweep: tran tran58   end,  cpu clock=  3.58E+00 memory=      1714 kb
 data: data=stimdata        index           =    5.90E+01
 dcop: begin dcop,  cpu clock=  3.58E+00
 dcop: end dcop,  cpu clock=  3.58E+00 memory=      1714 kb  tot_iter=     767
 output: /home/mrezaie/Downloads/ncx_inv/lib_all/and2/tOut_A_0000r/tOut_A_0000r.
 sweep: tran tran59   begin, stop_t=  4.80E-08 #sweeps= 481 cpu clock=  3.58E+00
 tran: time= 4.8841E-09 tot_iter=     180 conv_iter=      74 cpu clock= 3.59E+00
 tran: time= 1.0211E-08 tot_iter=     201 conv_iter=      81 cpu clock= 3.59E+00
 tran: time= 1.4507E-08 tot_iter=     206 conv_iter=      83 cpu clock= 3.59E+00
 tran: time= 1.9307E-08 tot_iter=     210 conv_iter=      85 cpu clock= 3.59E+00
 tran: time= 2.4107E-08 tot_iter=     214 conv_iter=      87 cpu clock= 3.59E+00
 tran: time= 2.8907E-08 tot_iter=     218 conv_iter=      89 cpu clock= 3.59E+00
 tran: time= 3.3707E-08 tot_iter=     222 conv_iter=      91 cpu clock= 3.59E+00
 tran: time= 3.8507E-08 tot_iter=     226 conv_iter=      93 cpu clock= 3.59E+00
 tran: time= 4.3307E-08 tot_iter=     230 conv_iter=      95 cpu clock= 3.59E+00
 tran: time= 4.8000E-08 tot_iter=     234 conv_iter=      97 cpu clock= 3.59E+00
 sweep: tran tran59   end,  cpu clock=  3.59E+00 memory=      1714 kb
 data: data=stimdata        index           =    6.00E+01
 dcop: begin dcop,  cpu clock=  3.59E+00
 dcop: end dcop,  cpu clock=  3.59E+00 memory=      1714 kb  tot_iter=     780
 output: /home/mrezaie/Downloads/ncx_inv/lib_all/and2/tOut_A_0000r/tOut_A_0000r.
 sweep: tran tran60   begin, stop_t=  4.80E-08 #sweeps= 481 cpu clock=  3.59E+00
 tran: time= 4.8570E-09 tot_iter=     179 conv_iter=      74 cpu clock= 3.60E+00
 tran: time= 9.9745E-09 tot_iter=     200 conv_iter=      81 cpu clock= 3.60E+00
 tran: time= 1.6527E-08 tot_iter=     207 conv_iter=      84 cpu clock= 3.60E+00
 tran: time= 2.1327E-08 tot_iter=     211 conv_iter=      86 cpu clock= 3.60E+00
 tran: time= 2.6127E-08 tot_iter=     215 conv_iter=      88 cpu clock= 3.60E+00
 tran: time= 3.0927E-08 tot_iter=     219 conv_iter=      90 cpu clock= 3.60E+00
 tran: time= 3.5727E-08 tot_iter=     223 conv_iter=      92 cpu clock= 3.60E+00
 tran: time= 4.0527E-08 tot_iter=     227 conv_iter=      94 cpu clock= 3.60E+00
 tran: time= 4.5327E-08 tot_iter=     231 conv_iter=      96 cpu clock= 3.60E+00
 tran: time= 4.8000E-08 tot_iter=     235 conv_iter=      98 cpu clock= 3.60E+00
 sweep: tran tran60   end,  cpu clock=  3.60E+00 memory=      1714 kb
 data: data=stimdata        index           =    6.10E+01
 dcop: begin dcop,  cpu clock=  3.60E+00
 dcop: end dcop,  cpu clock=  3.60E+00 memory=      1714 kb  tot_iter=     793
 output: /home/mrezaie/Downloads/ncx_inv/lib_all/and2/tOut_A_0000r/tOut_A_0000r.
 sweep: tran tran61   begin, stop_t=  4.80E-08 #sweeps= 481 cpu clock=  3.60E+00
 tran: time= 4.8415E-09 tot_iter=     176 conv_iter=      72 cpu clock= 3.60E+00
 tran: time= 9.8197E-09 tot_iter=     197 conv_iter=      79 cpu clock= 3.60E+00
 tran: time= 1.6276E-08 tot_iter=     204 conv_iter=      82 cpu clock= 3.60E+00
 tran: time= 2.1076E-08 tot_iter=     208 conv_iter=      84 cpu clock= 3.60E+00
 tran: time= 2.5876E-08 tot_iter=     212 conv_iter=      86 cpu clock= 3.60E+00
 tran: time= 3.0676E-08 tot_iter=     216 conv_iter=      88 cpu clock= 3.60E+00
 tran: time= 3.5476E-08 tot_iter=     220 conv_iter=      90 cpu clock= 3.60E+00
 tran: time= 4.0276E-08 tot_iter=     224 conv_iter=      92 cpu clock= 3.60E+00
 tran: time= 4.5076E-08 tot_iter=     228 conv_iter=      94 cpu clock= 3.60E+00
 tran: time= 4.8000E-08 tot_iter=     232 conv_iter=      96 cpu clock= 3.60E+00
 sweep: tran tran61   end,  cpu clock=  3.60E+00 memory=      1714 kb
 data: data=stimdata        index           =    6.20E+01
 dcop: begin dcop,  cpu clock=  3.60E+00
 dcop: end dcop,  cpu clock=  3.60E+00 memory=      1714 kb  tot_iter=     806
 output: /home/mrezaie/Downloads/ncx_inv/lib_all/and2/tOut_A_0000r/tOut_A_0000r.
 sweep: tran tran62   begin, stop_t=  4.80E-08 #sweeps= 481 cpu clock=  3.60E+00
 tran: time= 4.8725E-09 tot_iter=     183 conv_iter=      75 cpu clock= 3.61E+00
 tran: time= 1.0083E-08 tot_iter=     204 conv_iter=      82 cpu clock= 3.61E+00
 tran: time= 1.6693E-08 tot_iter=     211 conv_iter=      85 cpu clock= 3.61E+00
 tran: time= 2.1493E-08 tot_iter=     215 conv_iter=      87 cpu clock= 3.61E+00
 tran: time= 2.6293E-08 tot_iter=     219 conv_iter=      89 cpu clock= 3.61E+00
 tran: time= 3.1093E-08 tot_iter=     223 conv_iter=      91 cpu clock= 3.61E+00
 tran: time= 3.5893E-08 tot_iter=     227 conv_iter=      93 cpu clock= 3.61E+00
 tran: time= 4.0693E-08 tot_iter=     231 conv_iter=      95 cpu clock= 3.61E+00
 tran: time= 4.5493E-08 tot_iter=     235 conv_iter=      97 cpu clock= 3.61E+00
 tran: time= 4.8000E-08 tot_iter=     237 conv_iter=      98 cpu clock= 3.61E+00
 sweep: tran tran62   end,  cpu clock=  3.61E+00 memory=      1714 kb
 data: data=stimdata        index           =    6.30E+01
 dcop: begin dcop,  cpu clock=  3.61E+00
 dcop: end dcop,  cpu clock=  3.61E+00 memory=      1714 kb  tot_iter=     819
 output: /home/mrezaie/Downloads/ncx_inv/lib_all/and2/tOut_A_0000r/tOut_A_0000r.
 sweep: tran tran63   begin, stop_t=  4.80E-08 #sweeps= 481 cpu clock=  3.61E+00
 tran: time= 4.8803E-09 tot_iter=     184 conv_iter=      75 cpu clock= 3.62E+00
 tran: time= 1.0137E-08 tot_iter=     205 conv_iter=      82 cpu clock= 3.62E+00
 tran: time= 1.6775E-08 tot_iter=     212 conv_iter=      85 cpu clock= 3.62E+00
 tran: time= 2.1575E-08 tot_iter=     216 conv_iter=      87 cpu clock= 3.62E+00
 tran: time= 2.6375E-08 tot_iter=     220 conv_iter=      89 cpu clock= 3.62E+00
 tran: time= 3.1175E-08 tot_iter=     224 conv_iter=      91 cpu clock= 3.62E+00
 tran: time= 3.5975E-08 tot_iter=     228 conv_iter=      93 cpu clock= 3.62E+00
 tran: time= 4.0775E-08 tot_iter=     232 conv_iter=      95 cpu clock= 3.62E+00
 tran: time= 4.5575E-08 tot_iter=     236 conv_iter=      97 cpu clock= 3.62E+00
 tran: time= 4.8000E-08 tot_iter=     238 conv_iter=      98 cpu clock= 3.62E+00
 sweep: tran tran63   end,  cpu clock=  3.62E+00 memory=      1714 kb
 data: data=stimdata        index           =    6.40E+01
 dcop: begin dcop,  cpu clock=  3.62E+00
 dcop: end dcop,  cpu clock=  3.62E+00 memory=      1714 kb  tot_iter=     832
 output: /home/mrezaie/Downloads/ncx_inv/lib_all/and2/tOut_A_0000r/tOut_A_0000r.
 sweep: tran tran64   begin, stop_t=  4.80E-08 #sweeps= 481 cpu clock=  3.62E+00
 tran: time= 4.8041E-09 tot_iter=     183 conv_iter=      75 cpu clock= 3.63E+00
 tran: time= 1.1185E-08 tot_iter=     207 conv_iter=      83 cpu clock= 3.63E+00
 tran: time= 1.5734E-08 tot_iter=     211 conv_iter=      85 cpu clock= 3.63E+00
 tran: time= 2.0534E-08 tot_iter=     215 conv_iter=      87 cpu clock= 3.63E+00
 tran: time= 2.5334E-08 tot_iter=     219 conv_iter=      89 cpu clock= 3.63E+00
 tran: time= 3.0134E-08 tot_iter=     223 conv_iter=      91 cpu clock= 3.63E+00
 tran: time= 3.4934E-08 tot_iter=     227 conv_iter=      93 cpu clock= 3.63E+00
 tran: time= 3.9734E-08 tot_iter=     231 conv_iter=      95 cpu clock= 3.63E+00
 tran: time= 4.4534E-08 tot_iter=     235 conv_iter=      97 cpu clock= 3.63E+00
 tran: time= 4.8000E-08 tot_iter=     239 conv_iter=      99 cpu clock= 3.63E+00
 sweep: tran tran64   end,  cpu clock=  3.63E+00 memory=      1714 kb
 data: data=stimdata        index           =    6.50E+01
 dcop: begin dcop,  cpu clock=  3.63E+00
 dcop: end dcop,  cpu clock=  3.63E+00 memory=      1714 kb  tot_iter=     845
 output: /home/mrezaie/Downloads/ncx_inv/lib_all/and2/tOut_A_0000r/tOut_A_0000r.
 sweep: tran tran65   begin, stop_t=  4.80E-08 #sweeps= 481 cpu clock=  3.63E+00
 tran: time= 4.8687E-09 tot_iter=     178 conv_iter=      73 cpu clock= 3.63E+00
 tran: time= 1.0022E-08 tot_iter=     199 conv_iter=      80 cpu clock= 3.63E+00
 tran: time= 1.6587E-08 tot_iter=     206 conv_iter=      83 cpu clock= 3.63E+00
 tran: time= 2.1387E-08 tot_iter=     210 conv_iter=      85 cpu clock= 3.64E+00
 tran: time= 2.6187E-08 tot_iter=     214 conv_iter=      87 cpu clock= 3.64E+00
[...]
 tran: time= 3.9892E-08 tot_iter=     212 conv_iter=      87 cpu clock= 3.81E+00
 tran: time= 4.4692E-08 tot_iter=     216 conv_iter=      89 cpu clock= 3.81E+00
 tran: time= 4.8000E-08 tot_iter=     220 conv_iter=      91 cpu clock= 3.81E+00
 sweep: tran tran88   end,  cpu clock=  3.81E+00 memory=      1714 kb
 data: data=stimdata        index           =    8.90E+01
 dcop: begin dcop,  cpu clock=  3.81E+00
 dcop: end dcop,  cpu clock=  3.81E+00 memory=      1714 kb  tot_iter=    1157
 output: /home/mrezaie/Downloads/ncx_inv/lib_all/and2/tOut_A_0000r/tOut_A_0000r.
 sweep: tran tran89   begin, stop_t=  4.80E-08 #sweeps= 481 cpu clock=  3.81E+00
 tran: time= 4.8100E-09 tot_iter=     115 conv_iter=      46 cpu clock= 3.82E+00
 tran: time= 9.7990E-09 tot_iter=     184 conv_iter=      74 cpu clock= 3.82E+00
 tran: time= 1.5866E-08 tot_iter=     192 conv_iter=      77 cpu clock= 3.82E+00
 tran: time= 2.0666E-08 tot_iter=     196 conv_iter=      79 cpu clock= 3.82E+00
 tran: time= 2.5466E-08 tot_iter=     200 conv_iter=      81 cpu clock= 3.82E+00
 tran: time= 3.0266E-08 tot_iter=     204 conv_iter=      83 cpu clock= 3.82E+00
 tran: time= 3.5066E-08 tot_iter=     208 conv_iter=      85 cpu clock= 3.82E+00
 tran: time= 3.9866E-08 tot_iter=     212 conv_iter=      87 cpu clock= 3.82E+00
 tran: time= 4.4666E-08 tot_iter=     216 conv_iter=      89 cpu clock= 3.82E+00
 tran: time= 4.8000E-08 tot_iter=     220 conv_iter=      91 cpu clock= 3.82E+00
 sweep: tran tran89   end,  cpu clock=  3.82E+00 memory=      1714 kb
 data: data=stimdata        index           =    9.00E+01
 dcop: begin dcop,  cpu clock=  3.82E+00
 dcop: end dcop,  cpu clock=  3.82E+00 memory=      1714 kb  tot_iter=    1170
 output: /home/mrezaie/Downloads/ncx_inv/lib_all/and2/tOut_A_0000r/tOut_A_0000r.
 sweep: tran tran90   begin, stop_t=  4.80E-08 #sweeps= 481 cpu clock=  3.82E+00
 tran: time= 4.8100E-09 tot_iter=     110 conv_iter=      44 cpu clock= 3.83E+00
 tran: time= 9.7463E-09 tot_iter=     179 conv_iter=      72 cpu clock= 3.83E+00
 tran: time= 1.5777E-08 tot_iter=     187 conv_iter=      75 cpu clock= 3.83E+00
 tran: time= 2.0577E-08 tot_iter=     191 conv_iter=      77 cpu clock= 3.83E+00
 tran: time= 2.5377E-08 tot_iter=     195 conv_iter=      79 cpu clock= 3.83E+00
 tran: time= 3.0177E-08 tot_iter=     199 conv_iter=      81 cpu clock= 3.83E+00
 tran: time= 3.4977E-08 tot_iter=     203 conv_iter=      83 cpu clock= 3.83E+00
 tran: time= 3.9777E-08 tot_iter=     207 conv_iter=      85 cpu clock= 3.83E+00
 tran: time= 4.4577E-08 tot_iter=     211 conv_iter=      87 cpu clock= 3.83E+00
 tran: time= 4.8000E-08 tot_iter=     215 conv_iter=      89 cpu clock= 3.83E+00
 sweep: tran tran90   end,  cpu clock=  3.83E+00 memory=      1714 kb
 data: data=stimdata        index           =    9.10E+01
 dcop: begin dcop,  cpu clock=  3.83E+00
 dcop: end dcop,  cpu clock=  3.83E+00 memory=      1714 kb  tot_iter=    1183
 output: /home/mrezaie/Downloads/ncx_inv/lib_all/and2/tOut_A_0000r/tOut_A_0000r.
 sweep: tran tran91   begin, stop_t=  4.80E-08 #sweeps= 481 cpu clock=  3.83E+00
 tran: time= 4.8100E-09 tot_iter=     110 conv_iter=      44 cpu clock= 3.83E+00
 tran: time= 9.7465E-09 tot_iter=     179 conv_iter=      72 cpu clock= 3.84E+00
 tran: time= 1.5776E-08 tot_iter=     187 conv_iter=      75 cpu clock= 3.84E+00
 tran: time= 2.0576E-08 tot_iter=     191 conv_iter=      77 cpu clock= 3.84E+00
 tran: time= 2.5376E-08 tot_iter=     195 conv_iter=      79 cpu clock= 3.84E+00
 tran: time= 3.0176E-08 tot_iter=     199 conv_iter=      81 cpu clock= 3.84E+00
 tran: time= 3.4976E-08 tot_iter=     203 conv_iter=      83 cpu clock= 3.84E+00
 tran: time= 3.9776E-08 tot_iter=     207 conv_iter=      85 cpu clock= 3.84E+00
 tran: time= 4.4576E-08 tot_iter=     211 conv_iter=      87 cpu clock= 3.84E+00
 tran: time= 4.8000E-08 tot_iter=     215 conv_iter=      89 cpu clock= 3.84E+00
 sweep: tran tran91   end,  cpu clock=  3.84E+00 memory=      1714 kb
 data: data=stimdata        index           =    9.20E+01
 dcop: begin dcop,  cpu clock=  3.84E+00
 dcop: end dcop,  cpu clock=  3.84E+00 memory=      1714 kb  tot_iter=    1196
 output: /home/mrezaie/Downloads/ncx_inv/lib_all/and2/tOut_A_0000r/tOut_A_0000r.
 sweep: tran tran92   begin, stop_t=  4.80E-08 #sweeps= 481 cpu clock=  3.84E+00
 tran: time= 4.8122E-09 tot_iter=     109 conv_iter=      42 cpu clock= 3.84E+00
 tran: time= 9.7053E-09 tot_iter=     199 conv_iter=      78 cpu clock= 3.84E+00
 tran: time= 1.5003E-08 tot_iter=     208 conv_iter=      81 cpu clock= 3.84E+00
 tran: time= 1.9803E-08 tot_iter=     212 conv_iter=      83 cpu clock= 3.84E+00
 tran: time= 2.4603E-08 tot_iter=     216 conv_iter=      85 cpu clock= 3.84E+00
 tran: time= 2.9403E-08 tot_iter=     220 conv_iter=      87 cpu clock= 3.84E+00
 tran: time= 3.4203E-08 tot_iter=     224 conv_iter=      89 cpu clock= 3.84E+00
 tran: time= 3.9003E-08 tot_iter=     228 conv_iter=      91 cpu clock= 3.84E+00
 tran: time= 4.3803E-08 tot_iter=     232 conv_iter=      93 cpu clock= 3.84E+00
 tran: time= 4.8000E-08 tot_iter=     236 conv_iter=      95 cpu clock= 3.84E+00
 sweep: tran tran92   end,  cpu clock=  3.84E+00 memory=      1714 kb
 data: data=stimdata        index           =    9.30E+01
 dcop: begin dcop,  cpu clock=  3.84E+00
 dcop: end dcop,  cpu clock=  3.84E+00 memory=      1714 kb  tot_iter=    1209
 output: /home/mrezaie/Downloads/ncx_inv/lib_all/and2/tOut_A_0000r/tOut_A_0000r.
 sweep: tran tran93   begin, stop_t=  4.80E-08 #sweeps= 481 cpu clock=  3.84E+00
 tran: time= 4.8134E-09 tot_iter=     109 conv_iter=      42 cpu clock= 3.85E+00
 tran: time= 1.0845E-08 tot_iter=     198 conv_iter=      78 cpu clock= 3.85E+00
 tran: time= 1.4659E-08 tot_iter=     204 conv_iter=      80 cpu clock= 3.85E+00
 tran: time= 1.9459E-08 tot_iter=     208 conv_iter=      82 cpu clock= 3.85E+00
 tran: time= 2.4259E-08 tot_iter=     212 conv_iter=      84 cpu clock= 3.85E+00
 tran: time= 2.9059E-08 tot_iter=     216 conv_iter=      86 cpu clock= 3.85E+00
 tran: time= 3.3859E-08 tot_iter=     220 conv_iter=      88 cpu clock= 3.85E+00
 tran: time= 3.8659E-08 tot_iter=     224 conv_iter=      90 cpu clock= 3.85E+00
 tran: time= 4.3459E-08 tot_iter=     228 conv_iter=      92 cpu clock= 3.85E+00
 tran: time= 4.8000E-08 tot_iter=     232 conv_iter=      94 cpu clock= 3.85E+00
 sweep: tran tran93   end,  cpu clock=  3.85E+00 memory=      1714 kb
 data: data=stimdata        index           =    9.40E+01
 dcop: begin dcop,  cpu clock=  3.85E+00
 dcop: end dcop,  cpu clock=  3.85E+00 memory=      1714 kb  tot_iter=    1222
 output: /home/mrezaie/Downloads/ncx_inv/lib_all/and2/tOut_A_0000r/tOut_A_0000r.
 sweep: tran tran94   begin, stop_t=  4.80E-08 #sweeps= 481 cpu clock=  3.85E+00
 tran: time= 4.8146E-09 tot_iter=     107 conv_iter=      42 cpu clock= 3.86E+00
 tran: time= 1.0851E-08 tot_iter=     194 conv_iter=      76 cpu clock= 3.86E+00
 tran: time= 1.4664E-08 tot_iter=     200 conv_iter=      78 cpu clock= 3.86E+00
 tran: time= 1.9464E-08 tot_iter=     204 conv_iter=      80 cpu clock= 3.86E+00
 tran: time= 2.4264E-08 tot_iter=     208 conv_iter=      82 cpu clock= 3.86E+00
 tran: time= 2.9064E-08 tot_iter=     212 conv_iter=      84 cpu clock= 3.86E+00
 tran: time= 3.3864E-08 tot_iter=     216 conv_iter=      86 cpu clock= 3.86E+00
 tran: time= 3.8664E-08 tot_iter=     220 conv_iter=      88 cpu clock= 3.86E+00
 tran: time= 4.3464E-08 tot_iter=     224 conv_iter=      90 cpu clock= 3.86E+00
 tran: time= 4.8000E-08 tot_iter=     228 conv_iter=      92 cpu clock= 3.86E+00
 sweep: tran tran94   end,  cpu clock=  3.86E+00 memory=      1714 kb
 data: data=stimdata        index           =    9.50E+01
 dcop: begin dcop,  cpu clock=  3.86E+00
 dcop: end dcop,  cpu clock=  3.86E+00 memory=      1714 kb  tot_iter=    1235
 output: /home/mrezaie/Downloads/ncx_inv/lib_all/and2/tOut_A_0000r/tOut_A_0000r.
 sweep: tran tran95   begin, stop_t=  4.80E-08 #sweeps= 481 cpu clock=  3.86E+00
 tran: time= 4.8157E-09 tot_iter=     107 conv_iter=      42 cpu clock= 3.86E+00
 tran: time= 1.0828E-08 tot_iter=     194 conv_iter=      76 cpu clock= 3.87E+00
 tran: time= 1.4623E-08 tot_iter=     200 conv_iter=      78 cpu clock= 3.87E+00
 tran: time= 1.9423E-08 tot_iter=     204 conv_iter=      80 cpu clock= 3.87E+00
 tran: time= 2.4223E-08 tot_iter=     208 conv_iter=      82 cpu clock= 3.87E+00
 tran: time= 2.9023E-08 tot_iter=     212 conv_iter=      84 cpu clock= 3.87E+00
 tran: time= 3.3823E-08 tot_iter=     216 conv_iter=      86 cpu clock= 3.87E+00
 tran: time= 3.8623E-08 tot_iter=     220 conv_iter=      88 cpu clock= 3.87E+00
 tran: time= 4.3423E-08 tot_iter=     224 conv_iter=      90 cpu clock= 3.87E+00
 tran: time= 4.8000E-08 tot_iter=     228 conv_iter=      92 cpu clock= 3.87E+00
 sweep: tran tran95   end,  cpu clock=  3.87E+00 memory=      1714 kb
 data: data=stimdata        index           =    9.60E+01
 dcop: begin dcop,  cpu clock=  3.87E+00
 dcop: end dcop,  cpu clock=  3.87E+00 memory=      1714 kb  tot_iter=    1248
 output: /home/mrezaie/Downloads/ncx_inv/lib_all/and2/tOut_A_0000r/tOut_A_0000r.
 sweep: tran tran96   begin, stop_t=  4.80E-08 #sweeps= 481 cpu clock=  3.87E+00
 tran: time= 4.8169E-09 tot_iter=     107 conv_iter=      42 cpu clock= 3.87E+00
 tran: time= 9.7327E-09 tot_iter=     193 conv_iter=      77 cpu clock= 3.87E+00
 tran: time= 1.5024E-08 tot_iter=     202 conv_iter=      80 cpu clock= 3.87E+00
 tran: time= 1.9824E-08 tot_iter=     206 conv_iter=      82 cpu clock= 3.87E+00
 tran: time= 2.4624E-08 tot_iter=     210 conv_iter=      84 cpu clock= 3.87E+00
 tran: time= 2.9424E-08 tot_iter=     214 conv_iter=      86 cpu clock= 3.88E+00
 tran: time= 3.4224E-08 tot_iter=     218 conv_iter=      88 cpu clock= 3.88E+00
 tran: time= 3.9024E-08 tot_iter=     222 conv_iter=      90 cpu clock= 3.88E+00
 tran: time= 4.3824E-08 tot_iter=     226 conv_iter=      92 cpu clock= 3.88E+00
 tran: time= 4.8000E-08 tot_iter=     230 conv_iter=      94 cpu clock= 3.88E+00
 sweep: tran tran96   end,  cpu clock=  3.88E+00 memory=      1714 kb
 data: data=stimdata        index           =    9.70E+01
 dcop: begin dcop,  cpu clock=  3.88E+00
 dcop: end dcop,  cpu clock=  3.88E+00 memory=      1714 kb  tot_iter=    1261
 output: /home/mrezaie/Downloads/ncx_inv/lib_all/and2/tOut_A_0000r/tOut_A_0000r.
 sweep: tran tran97   begin, stop_t=  4.80E-08 #sweeps= 481 cpu clock=  3.88E+00
 tran: time= 4.8159E-09 tot_iter=      97 conv_iter=      38 cpu clock= 3.88E+00
 tran: time= 1.0792E-08 tot_iter=     183 conv_iter=      72 cpu clock= 3.88E+00
 tran: time= 1.4558E-08 tot_iter=     189 conv_iter=      74 cpu clock= 3.88E+00
 tran: time= 1.9358E-08 tot_iter=     193 conv_iter=      76 cpu clock= 3.88E+00
 tran: time= 2.4158E-08 tot_iter=     197 conv_iter=      78 cpu clock= 3.88E+00
 tran: time= 2.8958E-08 tot_iter=     201 conv_iter=      80 cpu clock= 3.88E+00
 tran: time= 3.3758E-08 tot_iter=     205 conv_iter=      82 cpu clock= 3.88E+00
 tran: time= 3.8558E-08 tot_iter=     209 conv_iter=      84 cpu clock= 3.88E+00
 tran: time= 4.3358E-08 tot_iter=     213 conv_iter=      86 cpu clock= 3.88E+00
 tran: time= 4.8000E-08 tot_iter=     217 conv_iter=      88 cpu clock= 3.88E+00
 sweep: tran tran97   end,  cpu clock=  3.88E+00 memory=      1714 kb
 data: data=stimdata        index           =    9.80E+01
 dcop: begin dcop,  cpu clock=  3.88E+00
 dcop: end dcop,  cpu clock=  3.88E+00 memory=      1714 kb  tot_iter=    1274
 output: /home/mrezaie/Downloads/ncx_inv/lib_all/and2/tOut_A_0000r/tOut_A_0000r.
 sweep: tran tran98   begin, stop_t=  4.80E-08 #sweeps= 481 cpu clock=  3.88E+00
 tran: time= 4.8172E-09 tot_iter=      97 conv_iter=      38 cpu clock= 3.89E+00
 tran: time= 9.7030E-09 tot_iter=     183 conv_iter=      73 cpu clock= 3.89E+00
 tran: time= 1.4953E-08 tot_iter=     192 conv_iter=      76 cpu clock= 3.89E+00
 tran: time= 1.9753E-08 tot_iter=     196 conv_iter=      78 cpu clock= 3.89E+00
 tran: time= 2.4553E-08 tot_iter=     200 conv_iter=      80 cpu clock= 3.89E+00
 tran: time= 2.9353E-08 tot_iter=     204 conv_iter=      82 cpu clock= 3.89E+00
 tran: time= 3.4153E-08 tot_iter=     208 conv_iter=      84 cpu clock= 3.89E+00
 tran: time= 3.8953E-08 tot_iter=     212 conv_iter=      86 cpu clock= 3.89E+00
 tran: time= 4.3753E-08 tot_iter=     216 conv_iter=      88 cpu clock= 3.89E+00
 tran: time= 4.8000E-08 tot_iter=     220 conv_iter=      90 cpu clock= 3.89E+00
 sweep: tran tran98   end,  cpu clock=  3.89E+00 memory=      1714 kb
 data: data=stimdata        index           =    9.90E+01
 dcop: begin dcop,  cpu clock=  3.89E+00
 dcop: end dcop,  cpu clock=  3.89E+00 memory=      1714 kb  tot_iter=    1287
 output: /home/mrezaie/Downloads/ncx_inv/lib_all/and2/tOut_A_0000r/tOut_A_0000r.
 sweep: tran tran99   begin, stop_t=  4.80E-08 #sweeps= 481 cpu clock=  3.89E+00
 tran: time= 4.8185E-09 tot_iter=      97 conv_iter=      38 cpu clock= 3.89E+00
 tran: time= 9.7134E-09 tot_iter=     186 conv_iter=      74 cpu clock= 3.90E+00
 tran: time= 1.4969E-08 tot_iter=     195 conv_iter=      77 cpu clock= 3.90E+00
 tran: time= 1.9769E-08 tot_iter=     199 conv_iter=      79 cpu clock= 3.90E+00
 tran: time= 2.4569E-08 tot_iter=     203 conv_iter=      81 cpu clock= 3.90E+00
 tran: time= 2.9369E-08 tot_iter=     207 conv_iter=      83 cpu clock= 3.90E+00
 tran: time= 3.4169E-08 tot_iter=     211 conv_iter=      85 cpu clock= 3.90E+00
 tran: time= 3.8969E-08 tot_iter=     215 conv_iter=      87 cpu clock= 3.90E+00
 tran: time= 4.3769E-08 tot_iter=     219 conv_iter=      89 cpu clock= 3.90E+00
 tran: time= 4.8000E-08 tot_iter=     223 conv_iter=      91 cpu clock= 3.90E+00
 sweep: tran tran99   end,  cpu clock=  3.90E+00 memory=      1714 kb
 data: data=stimdata        index           =    1.00E+02
 dcop: begin dcop,  cpu clock=  3.90E+00
 dcop: end dcop,  cpu clock=  3.90E+00 memory=      1714 kb  tot_iter=    1300
 output: /home/mrezaie/Downloads/ncx_inv/lib_all/and2/tOut_A_0000r/tOut_A_0000r.
 sweep: tran tran100  begin, stop_t=  4.80E-08 #sweeps= 481 cpu clock=  3.90E+00
 tran: time= 4.8199E-09 tot_iter=      97 conv_iter=      38 cpu clock= 3.90E+00
 tran: time= 1.0727E-08 tot_iter=     183 conv_iter=      71 cpu clock= 3.90E+00
 tran: time= 1.4445E-08 tot_iter=     189 conv_iter=      73 cpu clock= 3.90E+00
 tran: time= 1.9245E-08 tot_iter=     193 conv_iter=      75 cpu clock= 3.90E+00
 tran: time= 2.4045E-08 tot_iter=     197 conv_iter=      77 cpu clock= 3.91E+00
 tran: time= 2.8845E-08 tot_iter=     201 conv_iter=      79 cpu clock= 3.91E+00
 tran: time= 3.3645E-08 tot_iter=     205 conv_iter=      81 cpu clock= 3.91E+00
 tran: time= 3.8445E-08 tot_iter=     209 conv_iter=      83 cpu clock= 3.91E+00
 tran: time= 4.3245E-08 tot_iter=     213 conv_iter=      85 cpu clock= 3.91E+00
 tran: time= 4.8000E-08 tot_iter=     217 conv_iter=      87 cpu clock= 3.91E+00
 sweep: tran tran100  end,  cpu clock=  3.91E+00 memory=      1714 kb
 data: data=stimdata        index           =    1.01E+02
 dcop: begin dcop,  cpu clock=  3.91E+00
 dcop: end dcop,  cpu clock=  3.91E+00 memory=      1714 kb  tot_iter=    1313
 output: /home/mrezaie/Downloads/ncx_inv/lib_all/and2/tOut_A_0000r/tOut_A_0000r.
 sweep: tran tran101  begin, stop_t=  4.80E-08 #sweeps= 481 cpu clock=  3.91E+00
 tran: time= 4.8213E-09 tot_iter=      97 conv_iter=      38 cpu clock= 3.91E+00
 tran: time= 1.0715E-08 tot_iter=     182 conv_iter=      71 cpu clock= 3.91E+00
 tran: time= 1.4423E-08 tot_iter=     188 conv_iter=      73 cpu clock= 3.91E+00
 tran: time= 1.9223E-08 tot_iter=     192 conv_iter=      75 cpu clock= 3.91E+00
 tran: time= 2.4023E-08 tot_iter=     196 conv_iter=      77 cpu clock= 3.91E+00
 tran: time= 2.8823E-08 tot_iter=     200 conv_iter=      79 cpu clock= 3.91E+00
 tran: time= 3.3623E-08 tot_iter=     204 conv_iter=      81 cpu clock= 3.91E+00
 tran: time= 3.8423E-08 tot_iter=     208 conv_iter=      83 cpu clock= 3.91E+00
 tran: time= 4.3223E-08 tot_iter=     212 conv_iter=      85 cpu clock= 3.91E+00
 tran: time= 4.8000E-08 tot_iter=     216 conv_iter=      87 cpu clock= 3.91E+00
 sweep: tran tran101  end,  cpu clock=  3.91E+00 memory=      1714 kb
 data: data=stimdata        index           =    1.02E+02
 dcop: begin dcop,  cpu clock=  3.91E+00
 dcop: end dcop,  cpu clock=  3.91E+00 memory=      1714 kb  tot_iter=    1326
 output: /home/mrezaie/Downloads/ncx_inv/lib_all/and2/tOut_A_0000r/tOut_A_0000r.
 sweep: tran tran102  begin, stop_t=  4.80E-08 #sweeps= 481 cpu clock=  3.91E+00
 tran: time= 4.8227E-09 tot_iter=      96 conv_iter=      38 cpu clock= 3.92E+00
 tran: time= 1.0721E-08 tot_iter=     179 conv_iter=      71 cpu clock= 3.92E+00
 tran: time= 1.4428E-08 tot_iter=     185 conv_iter=      73 cpu clock= 3.92E+00
 tran: time= 1.9228E-08 tot_iter=     189 conv_iter=      75 cpu clock= 3.92E+00
 tran: time= 2.4028E-08 tot_iter=     193 conv_iter=      77 cpu clock= 3.92E+00
 tran: time= 2.8828E-08 tot_iter=     197 conv_iter=      79 cpu clock= 3.92E+00
 tran: time= 3.3628E-08 tot_iter=     201 conv_iter=      81 cpu clock= 3.92E+00
 tran: time= 3.8428E-08 tot_iter=     205 conv_iter=      83 cpu clock= 3.92E+00
 tran: time= 4.3228E-08 tot_iter=     209 conv_iter=      85 cpu clock= 3.92E+00
 tran: time= 4.8000E-08 tot_iter=     213 conv_iter=      87 cpu clock= 3.92E+00
 sweep: tran tran102  end,  cpu clock=  3.92E+00 memory=      1714 kb
 data: data=stimdata        index           =    1.03E+02
 dcop: begin dcop,  cpu clock=  3.92E+00
 dcop: end dcop,  cpu clock=  3.92E+00 memory=      1714 kb  tot_iter=    1339
 output: /home/mrezaie/Downloads/ncx_inv/lib_all/and2/tOut_A_0000r/tOut_A_0000r.
 sweep: tran tran103  begin, stop_t=  4.80E-08 #sweeps= 481 cpu clock=  3.92E+00
 tran: time= 4.8247E-09 tot_iter=      96 conv_iter=      38 cpu clock= 3.93E+00
 tran: time= 1.0693E-08 tot_iter=     180 conv_iter=      71 cpu clock= 3.93E+00
 tran: time= 1.6780E-08 tot_iter=     188 conv_iter=      74 cpu clock= 3.93E+00
 tran: time= 2.1580E-08 tot_iter=     192 conv_iter=      76 cpu clock= 3.93E+00
 tran: time= 2.6380E-08 tot_iter=     196 conv_iter=      78 cpu clock= 3.93E+00
 tran: time= 3.1180E-08 tot_iter=     200 conv_iter=      80 cpu clock= 3.93E+00
 tran: time= 3.5980E-08 tot_iter=     204 conv_iter=      82 cpu clock= 3.93E+00
 tran: time= 4.0780E-08 tot_iter=     208 conv_iter=      84 cpu clock= 3.93E+00
 tran: time= 4.5580E-08 tot_iter=     212 conv_iter=      86 cpu clock= 3.93E+00
 tran: time= 4.8000E-08 tot_iter=     214 conv_iter=      87 cpu clock= 3.93E+00
 sweep: tran tran103  end,  cpu clock=  3.93E+00 memory=      1714 kb
 data: data=stimdata        index           =    1.04E+02
 dcop: begin dcop,  cpu clock=  3.93E+00
 dcop: end dcop,  cpu clock=  3.93E+00 memory=      1714 kb  tot_iter=    1352
 output: /home/mrezaie/Downloads/ncx_inv/lib_all/and2/tOut_A_0000r/tOut_A_0000r.
 sweep: tran tran104  begin, stop_t=  4.80E-08 #sweeps= 481 cpu clock=  3.93E+00
 tran: time= 4.8004E-09 tot_iter=      94 conv_iter=      37 cpu clock= 3.93E+00
 tran: time= 1.0690E-08 tot_iter=     180 conv_iter=      71 cpu clock= 3.94E+00
 tran: time= 1.6773E-08 tot_iter=     188 conv_iter=      74 cpu clock= 3.94E+00
 tran: time= 2.1573E-08 tot_iter=     192 conv_iter=      76 cpu clock= 3.94E+00
 tran: time= 2.6373E-08 tot_iter=     196 conv_iter=      78 cpu clock= 3.94E+00
 tran: time= 3.1173E-08 tot_iter=     200 conv_iter=      80 cpu clock= 3.94E+00
 tran: time= 3.5973E-08 tot_iter=     204 conv_iter=      82 cpu clock= 3.94E+00
 tran: time= 4.0773E-08 tot_iter=     208 conv_iter=      84 cpu clock= 3.94E+00
 tran: time= 4.5573E-08 tot_iter=     212 conv_iter=      86 cpu clock= 3.94E+00
 tran: time= 4.8000E-08 tot_iter=     214 conv_iter=      87 cpu clock= 3.94E+00
 sweep: tran tran104  end,  cpu clock=  3.94E+00 memory=      1714 kb
 sweep: data            data            1 end
>info:         ***** hspice job concluded
 lic: Release hspice token(s)
