$DATA1 SOURCE='HSPICE' VERSION='F-2011.09-SP1 64-BIT'
.TITLE '* hspice timing acquisition'
 index            index            nc_td            adrv_cap          
                  iptr             cap_out          t_a0              
                  v_a0             t_a1             v_a1              
                  t_a2             v_a2             t_a3              
                  v_a3             t_a4             v_a4              
                  t_a5             v_a5             t_a6              
                  v_a6             t_a7             v_a7              
                  t_a8             v_a8             t_a9              
                  v_a9             t_a10            v_a10             
                  t_a11            v_a11            t_a12             
                  v_a12            t_a13            v_a13             
                  t_a14            v_a14            t_a15             
                  v_a15            t_b0             v_b0              
                  t_b1             v_b1             nc_delay_a_out    
                  nc_inref_a       nc_optr_out      nc_fulloptr_out   
                  t_a_trip1        t_a_trip2        t_stop_a          
                  t_stop_out       t_simstop        t_a_trip_incap1   
                  t_a_trip_incap2  nc_intg_i_a      nc_intg_i1_a      
                  nc_intg_i2_a     nc_incap_a       nc_incap_c1_a     
                  nc_incap_c2_a    nc_iptr_a        real_iptr_a       
                  nc_when_a        nc_when_b        nc_when_out       
                  nc_leak_i_a      nc_leak_i_b      nc_leak_i_vss     
                  nc_leak_i_vdd    nc_dyn_energy    t_int_energy      
                  nc_int_energy    nc_dyn_eng_vss   nc_dyn_eng_vdd    
                  nc_dyn_abs_energy nc_charge_vss    nc_charge_vdd     
                  nc_sidecap       temper           alter#            
 1                 1.000000000e+00  4.010000000e-09  5.000000000e-12  
                   6.000000000e-12  6.000000000e-15  0.000000000e+00  
                   0.000000000e+00  4.000000000e-09  0.000000000e+00  
                   4.010000000e-09  0.000000000e+00  4.011200000e-09  
                   6.000000000e-02  4.012400000e-09  2.177445717e-01  
                   4.013600000e-09  3.768186931e-01  4.014800000e-09  
                   5.163496080e-01  4.016000000e-09  6.401923789e-01  
                   4.017200000e-09  7.514416244e-01  4.018400000e-09  
                   8.525815239e-01  4.019600000e-09  9.456062310e-01  
                   4.020800000e-09  1.032116536e+00  4.022000000e-09  
                   1.113397459e+00  4.023200000e-09  1.190480541e+00  
                   4.024400000e-09  1.200000000e+00  4.025600000e-09  
                   1.200000000e+00  0.000000000e+00  1.200000000e+00  
                   4.000000000e-07  1.200000000e+00  8.700549645e-12  
                   4.015610794e-09  2.330241349e-11    failed         
                   4.013020506e-09  4.019020540e-09  4.022414138e-09  
                     failed           failed         4.010120000e-09  
                   4.019020540e-09 -3.085527408e-14 -1.815764564e-14  
                  -1.269762843e-14  3.451372939e-14  3.056842701e-14  
                   4.232542811e-14  6.000000000e-12  6.000033882e-12  
                   1.000000000e+00  1.000000000e+00  1.000000000e+00  
                   2.109340790e-08 -2.163378407e-03  2.163568344e-03  
                  -2.110301167e-07    failed           failed         
                     failed           failed           failed         
                     failed           failed           failed         
                   2.400000000e-14  2.500000000e+01 1                 
 2                 2.000000000e+00  4.010000000e-09  5.000000000e-12  
                   6.000000000e-12  9.000000000e-15  0.000000000e+00  
                   0.000000000e+00  4.000000000e-09  0.000000000e+00  
                   4.010000000e-09  0.000000000e+00  4.011200000e-09  
                   6.000000000e-02  4.012400000e-09  2.177445717e-01  
                   4.013600000e-09  3.768186931e-01  4.014800000e-09  
                   5.163496080e-01  4.016000000e-09  6.401923789e-01  
                   4.017200000e-09  7.514416244e-01  4.018400000e-09  
                   8.525815239e-01  4.019600000e-09  9.456062310e-01  
                   4.020800000e-09  1.032116536e+00  4.022000000e-09  
                   1.113397459e+00  4.023200000e-09  1.190480541e+00  
                   4.024400000e-09  1.200000000e+00  4.025600000e-09  
                   1.200000000e+00  0.000000000e+00  1.200000000e+00  
                   4.000000000e-07  1.200000000e+00  8.896658335e-12  
                   4.015610594e-09  2.493394888e-11    failed         
                   4.013020506e-09  4.019020533e-09  4.022414138e-09  
                     failed           failed         4.010120000e-09  
                   4.019020533e-09 -3.087620554e-14 -1.816418174e-14  
                  -1.271202380e-14  3.453714266e-14  3.057943054e-14  
                   4.237341265e-14  6.000000000e-12  6.000026777e-12  
                   1.000000000e+00  1.000000000e+00  1.000000000e+00  
                   2.109340790e-08 -2.163378407e-03  2.163568344e-03  
                  -2.110301167e-07    failed           failed         
                     failed           failed           failed         
                     failed           failed           failed         
                   2.400000000e-14  2.500000000e+01 1                 
 3                 3.000000000e+00  4.010000000e-09  5.000000000e-12  
                   6.000000000e-12  1.200000000e-14  0.000000000e+00  
                   0.000000000e+00  4.000000000e-09  0.000000000e+00  
                   4.010000000e-09  0.000000000e+00  4.011200000e-09  
                   6.000000000e-02  4.012400000e-09  2.177445717e-01  
                   4.013600000e-09  3.768186931e-01  4.014800000e-09  
                   5.163496080e-01  4.016000000e-09  6.401923789e-01  
                   4.017200000e-09  7.514416244e-01  4.018400000e-09  
                   8.525815239e-01  4.019600000e-09  9.456062310e-01  
                   4.020800000e-09  1.032116536e+00  4.022000000e-09  
                   1.113397459e+00  4.023200000e-09  1.190480541e+00  
                   4.024400000e-09  1.200000000e+00  4.025600000e-09  
                   1.200000000e+00  0.000000000e+00  1.200000000e+00  
                   4.000000000e-07  1.200000000e+00  9.099477391e-12  
                   4.015611034e-09  2.644832981e-11    failed         
                   4.013020506e-09  4.019020512e-09  4.022414138e-09  
                     failed           failed         4.010120000e-09  
                   4.019020512e-09 -3.089649435e-14 -1.817336521e-14  
                  -1.272312914e-14  3.455983708e-14  3.059489093e-14  
                   4.241043046e-14  6.000000000e-12  6.000005490e-12  
                   1.000000000e+00  1.000000000e+00  1.000000000e+00  
                   2.109340790e-08 -2.163378407e-03  2.163568344e-03  
                  -2.110301167e-07    failed           failed         
                     failed           failed           failed         
                     failed           failed           failed         
                   2.400000000e-14  2.500000000e+01 1                 
 4                 4.000000000e+00  4.010000000e-09  5.000000000e-12  
                   6.000000000e-12  1.500000000e-14  0.000000000e+00  
                   0.000000000e+00  4.000000000e-09  0.000000000e+00  
                   4.010000000e-09  0.000000000e+00  4.011200000e-09  
                   6.000000000e-02  4.012400000e-09  2.177445717e-01  
                   4.013600000e-09  3.768186931e-01  4.014800000e-09  
                   5.163496080e-01  4.016000000e-09  6.401923789e-01  
                   4.017200000e-09  7.514416244e-01  4.018400000e-09  
                   8.525815239e-01  4.019600000e-09  9.456062310e-01  
                   4.020800000e-09  1.032116536e+00  4.022000000e-09  
                   1.113397459e+00  4.023200000e-09  1.190480541e+00  
                   4.024400000e-09  1.200000000e+00  4.025600000e-09  
                   1.200000000e+00  0.000000000e+00  1.200000000e+00  
                   4.000000000e-07  1.200000000e+00  9.298478316e-12  
                   4.015611552e-09  2.787479385e-11    failed         
                   4.013020506e-09  4.019020487e-09  4.022414138e-09  
                     failed           failed         4.010120000e-09  
                   4.019020487e-09 -3.091613786e-14 -1.818285712e-14  
                  -1.273328074e-14  3.458180969e-14  3.061087057e-14  
                   4.244426915e-14  6.000000000e-12  5.999980891e-12  
                   1.000000000e+00  1.000000000e+00  1.000000000e+00  
                   2.109340790e-08 -2.163378407e-03  2.163568344e-03  
                  -2.110301167e-07    failed           failed         
                     failed           failed           failed         
                     failed           failed           failed         
                   2.400000000e-14  2.500000000e+01 1                 
 5                 5.000000000e+00  4.010000000e-09  5.000000000e-12  
                   6.000000000e-12  1.800000000e-14  0.000000000e+00  
                   0.000000000e+00  4.000000000e-09  0.000000000e+00  
                   4.010000000e-09  0.000000000e+00  4.011200000e-09  
                   6.000000000e-02  4.012400000e-09  2.177445717e-01  
                   4.013600000e-09  3.768186931e-01  4.014800000e-09  
                   5.163496080e-01  4.016000000e-09  6.401923789e-01  
                   4.017200000e-09  7.514416244e-01  4.018400000e-09  
                   8.525815239e-01  4.019600000e-09  9.456062310e-01  
                   4.020800000e-09  1.032116536e+00  4.022000000e-09  
                   1.113397459e+00  4.023200000e-09  1.190480541e+00  
                   4.024400000e-09  1.200000000e+00  4.025600000e-09  
                   1.200000000e+00  0.000000000e+00  1.200000000e+00  
                   4.000000000e-07  1.200000000e+00  9.507970068e-12  
                   4.015611950e-09  2.961580758e-11    failed         
                   4.013020506e-09  4.019020464e-09  4.022414138e-09  
                     failed           failed         4.010120000e-09  
                   4.019020464e-09 -3.093513823e-14 -1.819179439e-14  
                  -1.274334384e-14  3.460306290e-14  3.062591648e-14  
                   4.247781280e-14  6.000000000e-12  5.999957283e-12  
                   1.000000000e+00  1.000000000e+00  1.000000000e+00  
                   2.109340790e-08 -2.163378407e-03  2.163568344e-03  
                  -2.110301167e-07    failed           failed         
                     failed           failed           failed         
                     failed           failed           failed         
                   2.400000000e-14  2.500000000e+01 1                 
 6                 6.000000000e+00  4.010000000e-09  5.000000000e-12  
                   6.000000000e-12  2.100000000e-14  0.000000000e+00  
                   0.000000000e+00  4.000000000e-09  0.000000000e+00  
                   4.010000000e-09  0.000000000e+00  4.011200000e-09  
                   6.000000000e-02  4.012400000e-09  2.177445717e-01  
                   4.013600000e-09  3.768186931e-01  4.014800000e-09  
                   5.163496080e-01  4.016000000e-09  6.401923789e-01  
                   4.017200000e-09  7.514416244e-01  4.018400000e-09  
                   8.525815239e-01  4.019600000e-09  9.456062310e-01  
                   4.020800000e-09  1.032116536e+00  4.022000000e-09  
                   1.113397459e+00  4.023200000e-09  1.190480541e+00  
                   4.024400000e-09  1.200000000e+00  4.025600000e-09  
                   1.200000000e+00  0.000000000e+00  1.200000000e+00  
                   4.000000000e-07  1.200000000e+00  9.710584739e-12  
                   4.015612266e-09  3.124680190e-11    failed         
                   4.013020506e-09  4.019020442e-09  4.022414138e-09  
                     failed           failed         4.010120000e-09  
                   4.019020442e-09 -3.095352247e-14 -1.820029336e-14  
                  -1.275322910e-14  3.462362692e-14  3.064022452e-14  
                   4.251076368e-14  6.000000000e-12  5.999935389e-12  
                   1.000000000e+00  1.000000000e+00  1.000000000e+00  
                   2.109340790e-08 -2.163378407e-03  2.163568344e-03  
                  -2.110301167e-07    failed           failed         
                     failed           failed           failed         
                     failed           failed           failed         
                   2.400000000e-14  2.500000000e+01 1                 
 7                 7.000000000e+00  4.010000000e-09  5.000000000e-12  
                   6.000000000e-12  2.400000000e-14  0.000000000e+00  
                   0.000000000e+00  4.000000000e-09  0.000000000e+00  
                   4.010000000e-09  0.000000000e+00  4.011200000e-09  
                   6.000000000e-02  4.012400000e-09  2.177445717e-01  
                   4.013600000e-09  3.768186931e-01  4.014800000e-09  
                   5.163496080e-01  4.016000000e-09  6.401923789e-01  
                   4.017200000e-09  7.514416244e-01  4.018400000e-09  
                   8.525815239e-01  4.019600000e-09  9.456062310e-01  
                   4.020800000e-09  1.032116536e+00  4.022000000e-09  
                   1.113397459e+00  4.023200000e-09  1.190480541e+00  
                   4.024400000e-09  1.200000000e+00  4.025600000e-09  
                   1.200000000e+00  0.000000000e+00  1.200000000e+00  
                   4.000000000e-07  1.200000000e+00  9.919384524e-12  
                   4.015612519e-09  3.276883877e-11    failed         
                   4.013020506e-09  4.019020422e-09  4.022414138e-09  
                     failed           failed         4.010120000e-09  
                   4.019020422e-09 -3.097130315e-14 -1.820839948e-14  
                  -1.276290367e-14  3.464351583e-14  3.065387118e-14  
                   4.254301224e-14  6.000000000e-12  5.999915925e-12  
                   1.000000000e+00  1.000000000e+00  1.000000000e+00  
                   2.109340790e-08 -2.163378407e-03  2.163568344e-03  
                  -2.110301167e-07    failed           failed         
                     failed           failed           failed         
                     failed           failed           failed         
                   2.400000000e-14  2.500000000e+01 1                 
 8                 8.000000000e+00  4.010000000e-09  5.000000000e-12  
                   6.000000000e-12  2.700000000e-14  0.000000000e+00  
                   0.000000000e+00  4.000000000e-09  0.000000000e+00  
                   4.010000000e-09  0.000000000e+00  4.011200000e-09  
                   6.000000000e-02  4.012400000e-09  2.177445717e-01  
                   4.013600000e-09  3.768186931e-01  4.014800000e-09  
                   5.163496080e-01  4.016000000e-09  6.401923789e-01  
                   4.017200000e-09  7.514416244e-01  4.018400000e-09  
                   8.525815239e-01  4.019600000e-09  9.456062310e-01  
                   4.020800000e-09  1.032116536e+00  4.022000000e-09  
                   1.113397459e+00  4.023200000e-09  1.190480541e+00  
                   4.024400000e-09  1.200000000e+00  4.025600000e-09  
                   1.200000000e+00  0.000000000e+00  1.200000000e+00  
                   4.000000000e-07  1.200000000e+00  1.012968096e-11  
                   4.015612727e-09  3.427960392e-11    failed         
                   4.013020506e-09  4.019020405e-09  4.022414138e-09  
                     failed           failed         4.010120000e-09  
                   4.019020405e-09 -3.098850276e-14 -1.821615681e-14  
                  -1.277234595e-14  3.466275476e-14  3.066693066e-14  
                   4.257448649e-14  6.000000000e-12  5.999898848e-12  
                   1.000000000e+00  1.000000000e+00  1.000000000e+00  
                   2.109340790e-08 -2.163378407e-03  2.163568344e-03  
                  -2.110301167e-07    failed           failed         
                     failed           failed           failed         
                     failed           failed           failed         
                   2.400000000e-14  2.500000000e+01 1                 
 9                 9.000000000e+00  4.010000000e-09  5.000000000e-12  
                   6.000000000e-12  3.000000000e-14  0.000000000e+00  
                   0.000000000e+00  4.000000000e-09  0.000000000e+00  
                   4.010000000e-09  0.000000000e+00  4.011200000e-09  
                   6.000000000e-02  4.012400000e-09  2.177445717e-01  
                   4.013600000e-09  3.768186931e-01  4.014800000e-09  
                   5.163496080e-01  4.016000000e-09  6.401923789e-01  
                   4.017200000e-09  7.514416244e-01  4.018400000e-09  
                   8.525815239e-01  4.019600000e-09  9.456062310e-01  
                   4.020800000e-09  1.032116536e+00  4.022000000e-09  
                   1.113397459e+00  4.023200000e-09  1.190480541e+00  
                   4.024400000e-09  1.200000000e+00  4.025600000e-09  
                   1.200000000e+00  0.000000000e+00  1.200000000e+00  
                   4.000000000e-07  1.200000000e+00  1.034420456e-11  
                   4.015612899e-09  3.612133409e-11    failed         
                   4.013020506e-09  4.019020391e-09  4.022414138e-09  
                     failed           failed         4.010120000e-09  
                   4.019020391e-09 -3.100514453e-14 -1.822359561e-14  
                  -1.278154892e-14  3.468136972e-14  3.067945389e-14  
                   4.260516306e-14  6.000000000e-12  5.999884118e-12  
                   1.000000000e+00  1.000000000e+00  1.000000000e+00  
                   2.109340790e-08 -2.163378407e-03  2.163568344e-03  
                  -2.110301167e-07    failed           failed         
                     failed           failed           failed         
                     failed           failed           failed         
                   2.400000000e-14  2.500000000e+01 1                 
 10                1.000000000e+01  4.010000000e-09  5.000000000e-12  
                   6.000000000e-12  3.300000000e-14  0.000000000e+00  
                   0.000000000e+00  4.000000000e-09  0.000000000e+00  
                   4.010000000e-09  0.000000000e+00  4.011200000e-09  
                   6.000000000e-02  4.012400000e-09  2.177445717e-01  
                   4.013600000e-09  3.768186931e-01  4.014800000e-09  
                   5.163496080e-01  4.016000000e-09  6.401923789e-01  
                   4.017200000e-09  7.514416244e-01  4.018400000e-09  
                   8.525815239e-01  4.019600000e-09  9.456062310e-01  
                   4.020800000e-09  1.032116536e+00  4.022000000e-09  
                   1.113397459e+00  4.023200000e-09  1.190480541e+00  
                   4.024400000e-09  1.200000000e+00  4.025600000e-09  
                   1.200000000e+00  0.000000000e+00  1.200000000e+00  
                   4.000000000e-07  1.200000000e+00  1.055491067e-11  
                   4.015613043e-09  3.784785691e-11    failed         
                   4.013020506e-09  4.019020378e-09  4.022414138e-09  
                     failed           failed         4.010120000e-09  
                   4.019020378e-09 -3.102125200e-14 -1.823074327e-14  
                  -1.279050873e-14  3.469938703e-14  3.069148698e-14  
                   4.263502911e-14  6.000000000e-12  5.999871405e-12  
                   1.000000000e+00  1.000000000e+00  1.000000000e+00  
                   2.109340790e-08 -2.163378407e-03  2.163568344e-03  
                  -2.110301167e-07    failed           failed         
                     failed           failed           failed         
                     failed           failed           failed         
                   2.400000000e-14  2.500000000e+01 1                 
 11                1.100000000e+01  4.010000000e-09  5.000000000e-12  
                   6.000000000e-12  3.600000000e-14  0.000000000e+00  
                   0.000000000e+00  4.000000000e-09  0.000000000e+00  
                   4.010000000e-09  0.000000000e+00  4.011200000e-09  
                   6.000000000e-02  4.012400000e-09  2.177445717e-01  
                   4.013600000e-09  3.768186931e-01  4.014800000e-09  
                   5.163496080e-01  4.016000000e-09  6.401923789e-01  
                   4.017200000e-09  7.514416244e-01  4.018400000e-09  
                   8.525815239e-01  4.019600000e-09  9.456062310e-01  
                   4.020800000e-09  1.032116536e+00  4.022000000e-09  
                   1.113397459e+00  4.023200000e-09  1.190480541e+00  
                   4.024400000e-09  1.200000000e+00  4.025600000e-09  
                   1.200000000e+00  0.000000000e+00  1.200000000e+00  
                   4.000000000e-07  1.200000000e+00  1.077453095e-11  
                   4.015613165e-09  3.945890727e-11    failed         
                   4.013020506e-09  4.019020367e-09  4.022414138e-09  
                     failed           failed         4.010120000e-09  
                   4.019020367e-09 -3.103684810e-14 -1.823762064e-14  
                  -1.279922746e-14  3.471683233e-14  3.070306505e-14  
                   4.266409155e-14  6.000000000e-12  5.999860457e-12  
                   1.000000000e+00  1.000000000e+00  1.000000000e+00  
                   2.109340790e-08 -2.163378407e-03  2.163568344e-03  
                  -2.110301167e-07    failed           failed         
                     failed           failed           failed         
                     failed           failed           failed         
                   2.400000000e-14  2.500000000e+01 1                 
 12                1.200000000e+01  4.010000000e-09  5.000000000e-12  
                   6.000000000e-12  4.000000000e-14  0.000000000e+00  
                   0.000000000e+00  4.000000000e-09  0.000000000e+00  
                   4.010000000e-09  0.000000000e+00  4.011200000e-09  
                   6.000000000e-02  4.012400000e-09  2.177445717e-01  
                   4.013600000e-09  3.768186931e-01  4.014800000e-09  
                   5.163496080e-01  4.016000000e-09  6.401923789e-01  
                   4.017200000e-09  7.514416244e-01  4.018400000e-09  
                   8.525815239e-01  4.019600000e-09  9.456062310e-01  
                   4.020800000e-09  1.032116536e+00  4.022000000e-09  
                   1.113397459e+00  4.023200000e-09  1.190480541e+00  
                   4.024400000e-09  1.200000000e+00  4.025600000e-09  
                   1.200000000e+00  0.000000000e+00  1.200000000e+00  
                   4.000000000e-07  1.200000000e+00  1.105848312e-11  
                   4.015613302e-09  4.145021683e-11    failed         
                   4.013020506e-09  4.019020355e-09  4.022414138e-09  
                     failed           failed         4.010120000e-09  
                   4.019020355e-09 -3.105688541e-14 -1.824639840e-14  
                  -1.281048701e-14  3.473924543e-14  3.071784243e-14  
                   4.270162337e-14  6.000000000e-12  5.999848274e-12  
                   1.000000000e+00  1.000000000e+00  1.000000000e+00  
                   2.109340790e-08 -2.163378407e-03  2.163568344e-03  
                  -2.110301167e-07    failed           failed         
                     failed           failed           failed         
                     failed           failed           failed         
                   2.400000000e-14  2.500000000e+01 1                 
 13                1.300000000e+01  4.010000000e-09  5.000000000e-12  
                   6.000000000e-12  4.200000000e-14  0.000000000e+00  
                   0.000000000e+00  4.000000000e-09  0.000000000e+00  
                   4.010000000e-09  0.000000000e+00  4.011200000e-09  
                   6.000000000e-02  4.012400000e-09  2.177445717e-01  
                   4.013600000e-09  3.768186931e-01  4.014800000e-09  
                   5.163496080e-01  4.016000000e-09  6.401923789e-01  
                   4.017200000e-09  7.514416244e-01  4.018400000e-09  
                   8.525815239e-01  4.019600000e-09  9.456062310e-01  
                   4.020800000e-09  1.032116536e+00  4.022000000e-09  
                   1.113397459e+00  4.023200000e-09  1.190480541e+00  
                   4.024400000e-09  1.200000000e+00  4.025600000e-09  
                   1.200000000e+00  0.000000000e+00  1.200000000e+00  
                   4.000000000e-07  1.200000000e+00  1.120835953e-11  
                   4.015613361e-09  4.259495893e-11    failed         
                   4.013020506e-09  4.019020350e-09  4.022414138e-09  
                     failed           failed         4.010120000e-09  
                   4.019020350e-09 -3.106659343e-14 -1.825062865e-14  
                  -1.281596477e-14  3.475010450e-14  3.072496406e-14  
                   4.271988258e-14  6.000000000e-12  5.999843104e-12  
                   1.000000000e+00  1.000000000e+00  1.000000000e+00  
                   2.109340790e-08 -2.163378407e-03  2.163568344e-03  
                  -2.110301167e-07    failed           failed         
                     failed           failed           failed         
                     failed           failed           failed         
                   2.400000000e-14  2.500000000e+01 1                 
 14                1.400000000e+01  4.010000000e-09  5.000000000e-12  
                   1.200000000e-11  6.000000000e-15  0.000000000e+00  
                   0.000000000e+00  4.000000000e-09  0.000000000e+00  
                   4.010000000e-09  0.000000000e+00  4.012400000e-09  
                   6.000000000e-02  4.014800000e-09  2.177445717e-01  
                   4.017200000e-09  3.768186931e-01  4.019600000e-09  
                   5.163496080e-01  4.022000000e-09  6.401923789e-01  
                   4.024400000e-09  7.514416244e-01  4.026800000e-09  
                   8.525815239e-01  4.029200000e-09  9.456062310e-01  
                   4.031600000e-09  1.032116536e+00  4.034000000e-09  
                   1.113397459e+00  4.036400000e-09  1.190480541e+00  
                   4.038800000e-09  1.200000000e+00  4.041200000e-09  
                   1.200000000e+00  0.000000000e+00  1.200000000e+00  
                   4.000000000e-07  1.200000000e+00  1.145357003e-11  
                   4.021221095e-09  2.534158222e-11    failed         
                   4.016041013e-09  4.028024293e-09  4.034828276e-09  
                     failed           failed         4.010240000e-09  
                   4.028024293e-09 -3.363092171e-14 -1.963302074e-14  
                  -1.399790097e-14  3.761848066e-14  3.305222346e-14  
                   4.665966990e-14  1.200000000e-11  1.198328063e-11  
                   1.000000000e+00  1.000000000e+00  1.000000000e+00  
                   2.109340790e-08 -2.163378407e-03  2.163568344e-03  
                  -2.110301167e-07    failed           failed         
                     failed           failed           failed         
                     failed           failed           failed         
                   2.400000000e-14  2.500000000e+01 1                 
 15                1.500000000e+01  4.010000000e-09  5.000000000e-12  
                   1.200000000e-11  9.000000000e-15  0.000000000e+00  
                   0.000000000e+00  4.000000000e-09  0.000000000e+00  
                   4.010000000e-09  0.000000000e+00  4.012400000e-09  
                   6.000000000e-02  4.014800000e-09  2.177445717e-01  
                   4.017200000e-09  3.768186931e-01  4.019600000e-09  
                   5.163496080e-01  4.022000000e-09  6.401923789e-01  
                   4.024400000e-09  7.514416244e-01  4.026800000e-09  
                   8.525815239e-01  4.029200000e-09  9.456062310e-01  
                   4.031600000e-09  1.032116536e+00  4.034000000e-09  
                   1.113397459e+00  4.036400000e-09  1.190480541e+00  
                   4.038800000e-09  1.200000000e+00  4.041200000e-09  
                   1.200000000e+00  0.000000000e+00  1.200000000e+00  
                   4.000000000e-07  1.200000000e+00  1.168232220e-11  
                   4.021221095e-09  2.690021303e-11    failed         
                   4.016041013e-09  4.028024238e-09  4.034828276e-09  
                     failed           failed         4.010240000e-09  
                   4.028024238e-09 -3.367251349e-14 -1.964106406e-14  
                  -1.403144943e-14  3.766500391e-14  3.306576441e-14  
                   4.677149810e-14  1.200000000e-11  1.198322519e-11  
                   1.000000000e+00  1.000000000e+00  1.000000000e+00  
                   2.109340790e-08 -2.163378407e-03  2.163568344e-03  
                  -2.110301167e-07    failed           failed         
                     failed           failed           failed         
                     failed           failed           failed         
                   2.400000000e-14  2.500000000e+01 1                 
 16                1.600000000e+01  4.010000000e-09  5.000000000e-12  
                   1.200000000e-11  1.200000000e-14  0.000000000e+00  
                   0.000000000e+00  4.000000000e-09  0.000000000e+00  
                   4.010000000e-09  0.000000000e+00  4.012400000e-09  
                   6.000000000e-02  4.014800000e-09  2.177445717e-01  
                   4.017200000e-09  3.768186931e-01  4.019600000e-09  
                   5.163496080e-01  4.022000000e-09  6.401923789e-01  
                   4.024400000e-09  7.514416244e-01  4.026800000e-09  
                   8.525815239e-01  4.029200000e-09  9.456062310e-01  
                   4.031600000e-09  1.032116536e+00  4.034000000e-09  
                   1.113397459e+00  4.036400000e-09  1.190480541e+00  
                   4.038800000e-09  1.200000000e+00  4.041200000e-09  
                   1.200000000e+00  0.000000000e+00  1.200000000e+00  
                   4.000000000e-07  1.200000000e+00  1.190250085e-11  
                   4.021221095e-09  2.842480602e-11    failed         
                   4.016041013e-09  4.028024195e-09  4.034828276e-09  
                     failed           failed         4.010240000e-09  
                   4.028024195e-09 -3.371163311e-14 -1.964863465e-14  
                  -1.406299846e-14  3.770876187e-14  3.307850952e-14  
                   4.687666152e-14  1.200000000e-11  1.198318254e-11  
                   1.000000000e+00  1.000000000e+00  1.000000000e+00  
                   2.109340790e-08 -2.163378407e-03  2.163568344e-03  
                  -2.110301167e-07    failed           failed         
                     failed           failed           failed         
                     failed           failed           failed         
                   2.400000000e-14  2.500000000e+01 1                 
 17                1.700000000e+01  4.010000000e-09  5.000000000e-12  
                   1.200000000e-11  1.500000000e-14  0.000000000e+00  
                   0.000000000e+00  4.000000000e-09  0.000000000e+00  
                   4.010000000e-09  0.000000000e+00  4.012400000e-09  
                   6.000000000e-02  4.014800000e-09  2.177445717e-01  
                   4.017200000e-09  3.768186931e-01  4.019600000e-09  
                   5.163496080e-01  4.022000000e-09  6.401923789e-01  
                   4.024400000e-09  7.514416244e-01  4.026800000e-09  
                   8.525815239e-01  4.029200000e-09  9.456062310e-01  
                   4.031600000e-09  1.032116536e+00  4.034000000e-09  
                   1.113397459e+00  4.036400000e-09  1.190480541e+00  
                   4.038800000e-09  1.200000000e+00  4.041200000e-09  
                   1.200000000e+00  0.000000000e+00  1.200000000e+00  
                   4.000000000e-07  1.200000000e+00  1.212541194e-11  
                   4.021221095e-09  2.979164208e-11    failed         
                   4.016041013e-09  4.028024189e-09  4.034828276e-09  
                     failed           failed         4.010240000e-09  
                   4.028024189e-09 -3.374854488e-14 -1.965574365e-14  
                  -1.409280123e-14  3.775005020e-14  3.309047752e-14  
                   4.697600410e-14  1.200000000e-11  1.198317632e-11  
                   1.000000000e+00  1.000000000e+00  1.000000000e+00  
                   2.109340790e-08 -2.163378407e-03  2.163568344e-03  
                  -2.110301167e-07    failed           failed         
                     failed           failed           failed         
                     failed           failed           failed         
                   2.400000000e-14  2.500000000e+01 1                 
 18                1.800000000e+01  4.010000000e-09  5.000000000e-12  
                   1.200000000e-11  1.800000000e-14  0.000000000e+00  
                   0.000000000e+00  4.000000000e-09  0.000000000e+00  
                   4.010000000e-09  0.000000000e+00  4.012400000e-09  
                   6.000000000e-02  4.014800000e-09  2.177445717e-01  
                   4.017200000e-09  3.768186931e-01  4.019600000e-09  
                   5.163496080e-01  4.022000000e-09  6.401923789e-01  
                   4.024400000e-09  7.514416244e-01  4.026800000e-09  
                   8.525815239e-01  4.029200000e-09  9.456062310e-01  
                   4.031600000e-09  1.032116536e+00  4.034000000e-09  
                   1.113397459e+00  4.036400000e-09  1.190480541e+00  
                   4.038800000e-09  1.200000000e+00  4.041200000e-09  
                   1.200000000e+00  0.000000000e+00  1.200000000e+00  
                   4.000000000e-07  1.200000000e+00  1.235437300e-11  
                   4.021221095e-09  3.144486533e-11    failed         
                   4.016041013e-09  4.028024228e-09  4.034828276e-09  
                     failed           failed         4.010240000e-09  
                   4.028024228e-09 -3.378349760e-14 -1.966244461e-14  
                  -1.412105300e-14  3.778914721e-14  3.310175859e-14  
                   4.707017667e-14  1.200000000e-11  1.198321518e-11  
                   1.000000000e+00  1.000000000e+00  1.000000000e+00  
                   2.109340790e-08 -2.163378407e-03  2.163568344e-03  
                  -2.110301167e-07    failed           failed         
                     failed           failed           failed         
                     failed           failed           failed         
                   2.400000000e-14  2.500000000e+01 1                 
 19                1.900000000e+01  4.010000000e-09  5.000000000e-12  
                   1.200000000e-11  2.100000000e-14  0.000000000e+00  
                   0.000000000e+00  4.000000000e-09  0.000000000e+00  
                   4.010000000e-09  0.000000000e+00  4.012400000e-09  
                   6.000000000e-02  4.014800000e-09  2.177445717e-01  
                   4.017200000e-09  3.768186931e-01  4.019600000e-09  
                   5.163496080e-01  4.022000000e-09  6.401923789e-01  
                   4.024400000e-09  7.514416244e-01  4.026800000e-09  
                   8.525815239e-01  4.029200000e-09  9.456062310e-01  
                   4.031600000e-09  1.032116536e+00  4.034000000e-09  
                   1.113397459e+00  4.036400000e-09  1.190480541e+00  
                   4.038800000e-09  1.200000000e+00  4.041200000e-09  
                   1.200000000e+00  0.000000000e+00  1.200000000e+00  
                   4.000000000e-07  1.200000000e+00  1.257327825e-11  
                   4.021223588e-09  3.305723771e-11    failed         
                   4.016041013e-09  4.028024290e-09  4.034828276e-09  
                     failed           failed         4.010240000e-09  
                   4.028024290e-09 -3.381355464e-14 -1.967234967e-14  
                  -1.414120497e-14  3.782276806e-14  3.311843379e-14  
                   4.713734990e-14  1.200000000e-11  1.198327708e-11  
                   1.000000000e+00  1.000000000e+00  1.000000000e+00  
                   2.109340790e-08 -2.163378407e-03  2.163568344e-03  
                  -2.110301167e-07    failed           failed         
                     failed           failed           failed         
                     failed           failed           failed         
                   2.400000000e-14  2.500000000e+01 1                 
 20                2.000000000e+01  4.010000000e-09  5.000000000e-12  
                   1.200000000e-11  2.400000000e-14  0.000000000e+00  
                   0.000000000e+00  4.000000000e-09  0.000000000e+00  
                   4.010000000e-09  0.000000000e+00  4.012400000e-09  
                   6.000000000e-02  4.014800000e-09  2.177445717e-01  
                   4.017200000e-09  3.768186931e-01  4.019600000e-09  
                   5.163496080e-01  4.022000000e-09  6.401923789e-01  
                   4.024400000e-09  7.514416244e-01  4.026800000e-09  
                   8.525815239e-01  4.029200000e-09  9.456062310e-01  
                   4.031600000e-09  1.032116536e+00  4.034000000e-09  
                   1.113397459e+00  4.036400000e-09  1.190480541e+00  
                   4.038800000e-09  1.200000000e+00  4.041200000e-09  
                   1.200000000e+00  0.000000000e+00  1.200000000e+00  
                   4.000000000e-07  1.200000000e+00  1.278571084e-11  
                   4.021226289e-09  3.450985072e-11    failed         
                   4.016041013e-09  4.028024273e-09  4.034828276e-09  
                     failed           failed         4.010240000e-09  
                   4.028024273e-09 -3.384129763e-14 -1.968246677e-14  
                  -1.415883086e-14  3.785380048e-14  3.313546594e-14  
                   4.719610286e-14  1.200000000e-11  1.198325968e-11  
                   1.000000000e+00  1.000000000e+00  1.000000000e+00  
                   2.109340790e-08 -2.163378407e-03  2.163568344e-03  
                  -2.110301167e-07    failed           failed         
                     failed           failed           failed         
                     failed           failed           failed         
                   2.400000000e-14  2.500000000e+01 1                 
 21                2.100000000e+01  4.010000000e-09  5.000000000e-12  
                   1.200000000e-11  2.700000000e-14  0.000000000e+00  
                   0.000000000e+00  4.000000000e-09  0.000000000e+00  
                   4.010000000e-09  0.000000000e+00  4.012400000e-09  
                   6.000000000e-02  4.014800000e-09  2.177445717e-01  
                   4.017200000e-09  3.768186931e-01  4.019600000e-09  
                   5.163496080e-01  4.022000000e-09  6.401923789e-01  
                   4.024400000e-09  7.514416244e-01  4.026800000e-09  
                   8.525815239e-01  4.029200000e-09  9.456062310e-01  
                   4.031600000e-09  1.032116536e+00  4.034000000e-09  
                   1.113397459e+00  4.036400000e-09  1.190480541e+00  
                   4.038800000e-09  1.200000000e+00  4.041200000e-09  
                   1.200000000e+00  0.000000000e+00  1.200000000e+00  
                   4.000000000e-07  1.200000000e+00  1.300129308e-11  
                   4.021228906e-09  3.603036518e-11    failed         
                   4.016041013e-09  4.028024273e-09  4.034828276e-09  
                     failed           failed         4.010240000e-09  
                   4.028024273e-09 -3.386146429e-14 -1.969076448e-14  
                  -1.417069981e-14  3.787635827e-14  3.314943515e-14  
                   4.723566603e-14  1.200000000e-11  1.198326038e-11  
                   1.000000000e+00  1.000000000e+00  1.000000000e+00  
                   2.109340790e-08 -2.163378407e-03  2.163568344e-03  
                  -2.110301167e-07    failed           failed         
                     failed           failed           failed         
                     failed           failed           failed         
                   2.400000000e-14  2.500000000e+01 1                 
 22                2.200000000e+01  4.010000000e-09  5.000000000e-12  
                   1.200000000e-11  3.000000000e-14  0.000000000e+00  
                   0.000000000e+00  4.000000000e-09  0.000000000e+00  
                   4.010000000e-09  0.000000000e+00  4.012400000e-09  
                   6.000000000e-02  4.014800000e-09  2.177445717e-01  
                   4.017200000e-09  3.768186931e-01  4.019600000e-09  
                   5.163496080e-01  4.022000000e-09  6.401923789e-01  
                   4.024400000e-09  7.514416244e-01  4.026800000e-09  
                   8.525815239e-01  4.029200000e-09  9.456062310e-01  
                   4.031600000e-09  1.032116536e+00  4.034000000e-09  
                   1.113397459e+00  4.036400000e-09  1.190480541e+00  
                   4.038800000e-09  1.200000000e+00  4.041200000e-09  
                   1.200000000e+00  0.000000000e+00  1.200000000e+00  
                   4.000000000e-07  1.200000000e+00  1.319240957e-11  
                   4.021231276e-09  3.758194842e-11    failed         
                   4.016041013e-09  4.028025078e-09  4.034828276e-09  
                     failed           failed         4.010240000e-09  
                   4.028025078e-09 -3.389404918e-14 -1.969851177e-14  
                  -1.419553741e-14  3.791280669e-14  3.316247773e-14  
                   4.731845804e-14  1.200000000e-11  1.198406513e-11  
                   1.000000000e+00  1.000000000e+00  1.000000000e+00  
                   2.109340790e-08 -2.163378407e-03  2.163568344e-03  
                  -2.110301167e-07    failed           failed         
                     failed           failed           failed         
                     failed           failed           failed         
                   2.400000000e-14  2.500000000e+01 1                 
 23                2.300000000e+01  4.010000000e-09  5.000000000e-12  
                   1.200000000e-11  3.300000000e-14  0.000000000e+00  
                   0.000000000e+00  4.000000000e-09  0.000000000e+00  
                   4.010000000e-09  0.000000000e+00  4.012400000e-09  
                   6.000000000e-02  4.014800000e-09  2.177445717e-01  
                   4.017200000e-09  3.768186931e-01  4.019600000e-09  
                   5.163496080e-01  4.022000000e-09  6.401923789e-01  
                   4.024400000e-09  7.514416244e-01  4.026800000e-09  
                   8.525815239e-01  4.029200000e-09  9.456062310e-01  
                   4.031600000e-09  1.032116536e+00  4.034000000e-09  
                   1.113397459e+00  4.036400000e-09  1.190480541e+00  
                   4.038800000e-09  1.200000000e+00  4.041200000e-09  
                   1.200000000e+00  0.000000000e+00  1.200000000e+00  
                   4.000000000e-07  1.200000000e+00  1.342953639e-11  
                   4.021237286e-09  3.943511690e-11    failed         
                   4.016041013e-09  4.028023556e-09  4.034828276e-09  
                     failed           failed         4.010240000e-09  
                   4.028023556e-09 -3.390126529e-14 -1.972490134e-14  
                  -1.417636395e-14  3.792087840e-14  3.320690461e-14  
                   4.725454650e-14  1.200000000e-11  1.198254331e-11  
                   1.000000000e+00  1.000000000e+00  1.000000000e+00  
                   2.109340790e-08 -2.163378407e-03  2.163568344e-03  
                  -2.110301167e-07    failed           failed         
                     failed           failed           failed         
                     failed           failed           failed         
                   2.400000000e-14  2.500000000e+01 1                 
 24                2.400000000e+01  4.010000000e-09  5.000000000e-12  
                   1.200000000e-11  3.600000000e-14  0.000000000e+00  
                   0.000000000e+00  4.000000000e-09  0.000000000e+00  
                   4.010000000e-09  0.000000000e+00  4.012400000e-09  
                   6.000000000e-02  4.014800000e-09  2.177445717e-01  
                   4.017200000e-09  3.768186931e-01  4.019600000e-09  
                   5.163496080e-01  4.022000000e-09  6.401923789e-01  
                   4.024400000e-09  7.514416244e-01  4.026800000e-09  
                   8.525815239e-01  4.029200000e-09  9.456062310e-01  
                   4.031600000e-09  1.032116536e+00  4.034000000e-09  
                   1.113397459e+00  4.036400000e-09  1.190480541e+00  
                   4.038800000e-09  1.200000000e+00  4.041200000e-09  
                   1.200000000e+00  0.000000000e+00  1.200000000e+00  
                   4.000000000e-07  1.200000000e+00  1.361949888e-11  
                   4.021240092e-09  4.094894306e-11    failed         
                   4.016041013e-09  4.028024524e-09  4.034828276e-09  
                     failed           failed         4.010240000e-09  
                   4.028024524e-09 -3.393739386e-14 -1.973256244e-14  
                  -1.420483142e-14  3.796129067e-14  3.321980209e-14  
                   4.734943807e-14  1.200000000e-11  1.198351157e-11  
                   1.000000000e+00  1.000000000e+00  1.000000000e+00  
                   2.109340790e-08 -2.163378407e-03  2.163568344e-03  
                  -2.110301167e-07    failed           failed         
                     failed           failed           failed         
                     failed           failed           failed         
                   2.400000000e-14  2.500000000e+01 1                 
 25                2.500000000e+01  4.010000000e-09  5.000000000e-12  
                   1.200000000e-11  4.000000000e-14  0.000000000e+00  
                   0.000000000e+00  4.000000000e-09  0.000000000e+00  
                   4.010000000e-09  0.000000000e+00  4.012400000e-09  
                   6.000000000e-02  4.014800000e-09  2.177445717e-01  
                   4.017200000e-09  3.768186931e-01  4.019600000e-09  
                   5.163496080e-01  4.022000000e-09  6.401923789e-01  
                   4.024400000e-09  7.514416244e-01  4.026800000e-09  
                   8.525815239e-01  4.029200000e-09  9.456062310e-01  
                   4.031600000e-09  1.032116536e+00  4.034000000e-09  
                   1.113397459e+00  4.036400000e-09  1.190480541e+00  
                   4.038800000e-09  1.200000000e+00  4.041200000e-09  
                   1.200000000e+00  0.000000000e+00  1.200000000e+00  
                   4.000000000e-07  1.200000000e+00  1.391114778e-11  
                   4.021243220e-09  4.283806110e-11    failed         
                   4.016041013e-09  4.028019161e-09  4.034828276e-09  
                     failed           failed         4.010240000e-09  
                   4.028019161e-09 -3.397281754e-14 -1.974118170e-14  
                  -1.423163584e-14  3.800091447e-14  3.323431263e-14  
                   4.743878612e-14  1.200000000e-11  1.197814803e-11  
                   1.000000000e+00  1.000000000e+00  1.000000000e+00  
                   2.109340790e-08 -2.163378407e-03  2.163568344e-03  
                  -2.110301167e-07    failed           failed         
                     failed           failed           failed         
                     failed           failed           failed         
                   2.400000000e-14  2.500000000e+01 1                 
 26                2.600000000e+01  4.010000000e-09  5.000000000e-12  
                   1.200000000e-11  4.200000000e-14  0.000000000e+00  
                   0.000000000e+00  4.000000000e-09  0.000000000e+00  
                   4.010000000e-09  0.000000000e+00  4.012400000e-09  
                   6.000000000e-02  4.014800000e-09  2.177445717e-01  
                   4.017200000e-09  3.768186931e-01  4.019600000e-09  
                   5.163496080e-01  4.022000000e-09  6.401923789e-01  
                   4.024400000e-09  7.514416244e-01  4.026800000e-09  
                   8.525815239e-01  4.029200000e-09  9.456062310e-01  
                   4.031600000e-09  1.032116536e+00  4.034000000e-09  
                   1.113397459e+00  4.036400000e-09  1.190480541e+00  
                   4.038800000e-09  1.200000000e+00  4.041200000e-09  
                   1.200000000e+00  0.000000000e+00  1.200000000e+00  
                   4.000000000e-07  1.200000000e+00  1.405421226e-11  
                   4.021244533e-09  4.404602404e-11    failed         
                   4.016041013e-09  4.028014060e-09  4.034828276e-09  
                     failed           failed         4.010240000e-09  
                   4.028014060e-09 -3.398658789e-14 -1.974507848e-14  
                  -1.424150941e-14  3.801631755e-14  3.324087286e-14  
                   4.747169805e-14  1.200000000e-11  1.197304677e-11  
                   1.000000000e+00  1.000000000e+00  1.000000000e+00  
                   2.109340790e-08 -2.163378407e-03  2.163568344e-03  
                  -2.110301167e-07    failed           failed         
                     failed           failed           failed         
                     failed           failed           failed         
                   2.400000000e-14  2.500000000e+01 1                 
 27                2.700000000e+01  4.010000000e-09  5.000000000e-12  
                   2.400000000e-11  6.000000000e-15  0.000000000e+00  
                   0.000000000e+00  4.000000000e-09  0.000000000e+00  
                   4.010000000e-09  0.000000000e+00  4.014800000e-09  
                   6.000000000e-02  4.019600000e-09  2.177445717e-01  
                   4.024400000e-09  3.768186931e-01  4.029200000e-09  
                   5.163496080e-01  4.034000000e-09  6.401923789e-01  
                   4.038800000e-09  7.514416244e-01  4.043600000e-09  
                   8.525815239e-01  4.048400000e-09  9.456062310e-01  
                   4.053200000e-09  1.032116536e+00  4.058000000e-09  
                   1.113397459e+00  4.062800000e-09  1.190480541e+00  
                   4.067600000e-09  1.200000000e+00  4.072400000e-09  
                   1.200000000e+00  0.000000000e+00  1.200000000e+00  
                   4.000000000e-07  1.200000000e+00  1.553559038e-11  
                   4.032442191e-09  3.518453730e-11    failed         
                   4.022082026e-09  4.046046755e-09  4.059656553e-09  
                     failed           failed         4.010480000e-09  
                   4.046046755e-09 -3.610451434e-14 -2.087214453e-14  
                  -1.523236982e-14  4.038536280e-14  3.513829045e-14  
                   5.077456605e-14  2.400000000e-11  2.396472950e-11  
                   1.000000000e+00  1.000000000e+00  1.000000000e+00  
                   2.109340790e-08 -2.163378407e-03  2.163568344e-03  
                  -2.110301167e-07    failed           failed         
                     failed           failed           failed         
                     failed           failed           failed         
                   2.400000000e-14  2.500000000e+01 1                 
 28                2.800000000e+01  4.010000000e-09  5.000000000e-12  
                   2.400000000e-11  9.000000000e-15  0.000000000e+00  
                   0.000000000e+00  4.000000000e-09  0.000000000e+00  
                   4.010000000e-09  0.000000000e+00  4.014800000e-09  
                   6.000000000e-02  4.019600000e-09  2.177445717e-01  
                   4.024400000e-09  3.768186931e-01  4.029200000e-09  
                   5.163496080e-01  4.034000000e-09  6.401923789e-01  
                   4.038800000e-09  7.514416244e-01  4.043600000e-09  
                   8.525815239e-01  4.048400000e-09  9.456062310e-01  
                   4.053200000e-09  1.032116536e+00  4.058000000e-09  
                   1.113397459e+00  4.062800000e-09  1.190480541e+00  
                   4.067600000e-09  1.200000000e+00  4.072400000e-09  
                   1.200000000e+00  0.000000000e+00  1.200000000e+00  
                   4.000000000e-07  1.200000000e+00  1.588907230e-11  
                   4.032442191e-09  3.662943992e-11    failed         
                   4.022082026e-09  4.046046755e-09  4.059656553e-09  
                     failed           failed         4.010480000e-09  
                   4.046046755e-09 -3.617455067e-14 -2.087926809e-14  
                  -1.529528258e-14  4.046370321e-14  3.515028298e-14  
                   5.098427526e-14  2.400000000e-11  2.396472950e-11  
                   1.000000000e+00  1.000000000e+00  1.000000000e+00  
                   2.109340790e-08 -2.163378407e-03  2.163568344e-03  
                  -2.110301167e-07    failed           failed         
                     failed           failed           failed         
                     failed           failed           failed         
                   2.400000000e-14  2.500000000e+01 1                 
 29                2.900000000e+01  4.010000000e-09  5.000000000e-12  
                   2.400000000e-11  1.200000000e-14  0.000000000e+00  
                   0.000000000e+00  4.000000000e-09  0.000000000e+00  
                   4.010000000e-09  0.000000000e+00  4.014800000e-09  
                   6.000000000e-02  4.019600000e-09  2.177445717e-01  
                   4.024400000e-09  3.768186931e-01  4.029200000e-09  
                   5.163496080e-01  4.034000000e-09  6.401923789e-01  
                   4.038800000e-09  7.514416244e-01  4.043600000e-09  
                   8.525815239e-01  4.048400000e-09  9.456062310e-01  
                   4.053200000e-09  1.032116536e+00  4.058000000e-09  
                   1.113397459e+00  4.062800000e-09  1.190480541e+00  
                   4.067600000e-09  1.200000000e+00  4.072400000e-09  
                   1.200000000e+00  0.000000000e+00  1.200000000e+00  
                   4.000000000e-07  1.200000000e+00  1.622873528e-11  
                   4.032442191e-09  3.811890522e-11    failed         
                   4.022082026e-09  4.046046755e-09  4.059656553e-09  
                     failed           failed         4.010480000e-09  
                   4.046046755e-09 -3.623321166e-14 -2.088626725e-14  
                  -1.534694441e-14  4.052931953e-14  3.516206607e-14  
                   5.115648138e-14  2.400000000e-11  2.396472950e-11  
                   1.000000000e+00  1.000000000e+00  1.000000000e+00  
                   2.109340790e-08 -2.163378407e-03  2.163568344e-03  
                  -2.110301167e-07    failed           failed         
                     failed           failed           failed         
                     failed           failed           failed         
                   2.400000000e-14  2.500000000e+01 1                 
 30                3.000000000e+01  4.010000000e-09  5.000000000e-12  
                   2.400000000e-11  1.500000000e-14  0.000000000e+00  
                   0.000000000e+00  4.000000000e-09  0.000000000e+00  
                   4.010000000e-09  0.000000000e+00  4.014800000e-09  
                   6.000000000e-02  4.019600000e-09  2.177445717e-01  
                   4.024400000e-09  3.768186931e-01  4.029200000e-09  
                   5.163496080e-01  4.034000000e-09  6.401923789e-01  
                   4.038800000e-09  7.514416244e-01  4.043600000e-09  
                   8.525815239e-01  4.048400000e-09  9.456062310e-01  
                   4.053200000e-09  1.032116536e+00  4.058000000e-09  
                   1.113397459e+00  4.062800000e-09  1.190480541e+00  
                   4.067600000e-09  1.200000000e+00  4.072400000e-09  
                   1.200000000e+00  0.000000000e+00  1.200000000e+00  
                   4.000000000e-07  1.200000000e+00  1.655812675e-11  
                   4.032442191e-09  3.948610739e-11    failed         
                   4.022082026e-09  4.046046755e-09  4.059656553e-09  
                     failed           failed         4.010480000e-09  
                   4.046046755e-09 -3.629012508e-14 -2.089310645e-14  
                  -1.539701863e-14  4.059298107e-14  3.517357988e-14  
                   5.132339543e-14  2.400000000e-11  2.396472950e-11  
                   1.000000000e+00  1.000000000e+00  1.000000000e+00  
                   2.109340790e-08 -2.163378407e-03  2.163568344e-03  
                  -2.110301167e-07    failed           failed         
                     failed           failed           failed         
                     failed           failed           failed         
                   2.400000000e-14  2.500000000e+01 1                 
 31                3.100000000e+01  4.010000000e-09  5.000000000e-12  
                   2.400000000e-11  1.800000000e-14  0.000000000e+00  
                   0.000000000e+00  4.000000000e-09  0.000000000e+00  
                   4.010000000e-09  0.000000000e+00  4.014800000e-09  
                   6.000000000e-02  4.019600000e-09  2.177445717e-01  
                   4.024400000e-09  3.768186931e-01  4.029200000e-09  
                   5.163496080e-01  4.034000000e-09  6.401923789e-01  
                   4.038800000e-09  7.514416244e-01  4.043600000e-09  
                   8.525815239e-01  4.048400000e-09  9.456062310e-01  
                   4.053200000e-09  1.032116536e+00  4.058000000e-09  
                   1.113397459e+00  4.062800000e-09  1.190480541e+00  
                   4.067600000e-09  1.200000000e+00  4.072400000e-09  
                   1.200000000e+00  0.000000000e+00  1.200000000e+00  
                   4.000000000e-07  1.200000000e+00  1.688364807e-11  
                   4.032442191e-09  4.111280338e-11    failed         
                   4.022082026e-09  4.046046755e-09  4.059656553e-09  
                     failed           failed         4.010480000e-09  
                   4.046046755e-09 -3.634003478e-14 -2.089973460e-14  
                  -1.544030018e-14  4.064880848e-14  3.518473839e-14  
                   5.146766728e-14  2.400000000e-11  2.396472950e-11  
                   1.000000000e+00  1.000000000e+00  1.000000000e+00  
                   2.109340790e-08 -2.163378407e-03  2.163568344e-03  
                  -2.110301167e-07    failed           failed         
                     failed           failed           failed         
                     failed           failed           failed         
                   2.400000000e-14  2.500000000e+01 1                 
 32                3.200000000e+01  4.010000000e-09  5.000000000e-12  
                   2.400000000e-11  2.100000000e-14  0.000000000e+00  
                   0.000000000e+00  4.000000000e-09  0.000000000e+00  
                   4.010000000e-09  0.000000000e+00  4.014800000e-09  
                   6.000000000e-02  4.019600000e-09  2.177445717e-01  
                   4.024400000e-09  3.768186931e-01  4.029200000e-09  
                   5.163496080e-01  4.034000000e-09  6.401923789e-01  
                   4.038800000e-09  7.514416244e-01  4.043600000e-09  
                   8.525815239e-01  4.048400000e-09  9.456062310e-01  
                   4.053200000e-09  1.032116536e+00  4.058000000e-09  
                   1.113397459e+00  4.062800000e-09  1.190480541e+00  
                   4.067600000e-09  1.200000000e+00  4.072400000e-09  
                   1.200000000e+00  0.000000000e+00  1.200000000e+00  
                   4.000000000e-07  1.200000000e+00  1.719025687e-11  
                   4.032442191e-09  4.252671219e-11    failed         
                   4.022082026e-09  4.046046755e-09  4.059656553e-09  
                     failed           failed         4.010480000e-09  
                   4.046046755e-09 -3.639523527e-14 -2.090576569e-14  
                  -1.548946958e-14  4.071055400e-14  3.519489173e-14  
                   5.163156528e-14  2.400000000e-11  2.396472950e-11  
                   1.000000000e+00  1.000000000e+00  1.000000000e+00  
                   2.109340790e-08 -2.163378407e-03  2.163568344e-03  
                  -2.110301167e-07    failed           failed         
                     failed           failed           failed         
                     failed           failed           failed         
                   2.400000000e-14  2.500000000e+01 1                 
 33                3.300000000e+01  4.010000000e-09  5.000000000e-12  
                   2.400000000e-11  2.400000000e-14  0.000000000e+00  
                   0.000000000e+00  4.000000000e-09  0.000000000e+00  
                   4.010000000e-09  0.000000000e+00  4.014800000e-09  
                   6.000000000e-02  4.019600000e-09  2.177445717e-01  
                   4.024400000e-09  3.768186931e-01  4.029200000e-09  
                   5.163496080e-01  4.034000000e-09  6.401923789e-01  
                   4.038800000e-09  7.514416244e-01  4.043600000e-09  
                   8.525815239e-01  4.048400000e-09  9.456062310e-01  
                   4.053200000e-09  1.032116536e+00  4.058000000e-09  
                   1.113397459e+00  4.062800000e-09  1.190480541e+00  
                   4.067600000e-09  1.200000000e+00  4.072400000e-09  
                   1.200000000e+00  0.000000000e+00  1.200000000e+00  
                   4.000000000e-07  1.200000000e+00  1.752391308e-11  
                   4.032442191e-09  4.399729933e-11    failed         
                   4.022082026e-09  4.046046755e-09  4.059656553e-09  
                     failed           failed         4.010480000e-09  
                   4.046046755e-09 -3.644863926e-14 -2.091143084e-14  
                  -1.553720842e-14  4.077029000e-14  3.520442902e-14  
                   5.179069474e-14  2.400000000e-11  2.396472950e-11  
                   1.000000000e+00  1.000000000e+00  1.000000000e+00  
                   2.109340790e-08 -2.163378407e-03  2.163568344e-03  
                  -2.110301167e-07    failed           failed         
                     failed           failed           failed         
                     failed           failed           failed         
                   2.400000000e-14  2.500000000e+01 1                 
 34                3.400000000e+01  4.010000000e-09  5.000000000e-12  
                   2.400000000e-11  2.700000000e-14  0.000000000e+00  
                   0.000000000e+00  4.000000000e-09  0.000000000e+00  
                   4.010000000e-09  0.000000000e+00  4.014800000e-09  
                   6.000000000e-02  4.019600000e-09  2.177445717e-01  
                   4.024400000e-09  3.768186931e-01  4.029200000e-09  
                   5.163496080e-01  4.034000000e-09  6.401923789e-01  
                   4.038800000e-09  7.514416244e-01  4.043600000e-09  
                   8.525815239e-01  4.048400000e-09  9.456062310e-01  
                   4.053200000e-09  1.032116536e+00  4.058000000e-09  
                   1.113397459e+00  4.062800000e-09  1.190480541e+00  
                   4.067600000e-09  1.200000000e+00  4.072400000e-09  
                   1.200000000e+00  0.000000000e+00  1.200000000e+00  
                   4.000000000e-07  1.200000000e+00  1.784431811e-11  
                   4.032442191e-09  4.540463029e-11    failed         
                   4.022082026e-09  4.046046755e-09  4.059656553e-09  
                     failed           failed         4.010480000e-09  
                   4.046046755e-09 -3.650039769e-14 -2.091703088e-14  
                  -1.558336680e-14  4.082818533e-14  3.521385671e-14  
                   5.194455600e-14  2.400000000e-11  2.396472950e-11  
                   1.000000000e+00  1.000000000e+00  1.000000000e+00  
                   2.109340790e-08 -2.163378407e-03  2.163568344e-03  
                  -2.110301167e-07    failed           failed         
                     failed           failed           failed         
                     failed           failed           failed         
                   2.400000000e-14  2.500000000e+01 1                 
 35                3.500000000e+01  4.010000000e-09  5.000000000e-12  
                   2.400000000e-11  3.000000000e-14  0.000000000e+00  
                   0.000000000e+00  4.000000000e-09  0.000000000e+00  
                   4.010000000e-09  0.000000000e+00  4.014800000e-09  
                   6.000000000e-02  4.019600000e-09  2.177445717e-01  
                   4.024400000e-09  3.768186931e-01  4.029200000e-09  
                   5.163496080e-01  4.034000000e-09  6.401923789e-01  
                   4.038800000e-09  7.514416244e-01  4.043600000e-09  
                   8.525815239e-01  4.048400000e-09  9.456062310e-01  
                   4.053200000e-09  1.032116536e+00  4.058000000e-09  
                   1.113397459e+00  4.062800000e-09  1.190480541e+00  
                   4.067600000e-09  1.200000000e+00  4.072400000e-09  
                   1.200000000e+00  0.000000000e+00  1.200000000e+00  
                   4.000000000e-07  1.200000000e+00  1.815314300e-11  
                   4.032442191e-09  4.667702313e-11    failed         
                   4.022082026e-09  4.046046755e-09  4.059656553e-09  
                     failed           failed         4.010480000e-09  
                   4.046046755e-09 -3.655055497e-14 -2.092255796e-14  
                  -1.562799701e-14  4.088428967e-14  3.522316155e-14  
                   5.209332336e-14  2.400000000e-11  2.396472950e-11  
                   1.000000000e+00  1.000000000e+00  1.000000000e+00  
                   2.109340790e-08 -2.163378407e-03  2.163568344e-03  
                  -2.110301167e-07    failed           failed         
                     failed           failed           failed         
                     failed           failed           failed         
                   2.400000000e-14  2.500000000e+01 1                 
 36                3.600000000e+01  4.010000000e-09  5.000000000e-12  
                   2.400000000e-11  3.300000000e-14  0.000000000e+00  
                   0.000000000e+00  4.000000000e-09  0.000000000e+00  
                   4.010000000e-09  0.000000000e+00  4.014800000e-09  
                   6.000000000e-02  4.019600000e-09  2.177445717e-01  
                   4.024400000e-09  3.768186931e-01  4.029200000e-09  
                   5.163496080e-01  4.034000000e-09  6.401923789e-01  
                   4.038800000e-09  7.514416244e-01  4.043600000e-09  
                   8.525815239e-01  4.048400000e-09  9.456062310e-01  
                   4.053200000e-09  1.032116536e+00  4.058000000e-09  
                   1.113397459e+00  4.062800000e-09  1.190480541e+00  
                   4.067600000e-09  1.200000000e+00  4.072400000e-09  
                   1.200000000e+00  0.000000000e+00  1.200000000e+00  
                   4.000000000e-07  1.200000000e+00  1.845183114e-11  
                   4.032442191e-09  4.803020401e-11    failed         
                   4.022082026e-09  4.046046755e-09  4.059656553e-09  
                     failed           failed         4.010480000e-09  
                   4.046046755e-09 -3.659915981e-14 -2.092800577e-14  
                  -1.567115404e-14  4.093865750e-14  3.523233294e-14  
                   5.223718013e-14  2.400000000e-11  2.396472950e-11  
                   1.000000000e+00  1.000000000e+00  1.000000000e+00  
                   2.109340790e-08 -2.163378407e-03  2.163568344e-03  
                  -2.110301167e-07    failed           failed         
                     failed           failed           failed         
                     failed           failed           failed         
                   2.400000000e-14  2.500000000e+01 1                 
 37                3.700000000e+01  4.010000000e-09  5.000000000e-12  
                   2.400000000e-11  3.600000000e-14  0.000000000e+00  
                   0.000000000e+00  4.000000000e-09  0.000000000e+00  
                   4.010000000e-09  0.000000000e+00  4.014800000e-09  
                   6.000000000e-02  4.019600000e-09  2.177445717e-01  
                   4.024400000e-09  3.768186931e-01  4.029200000e-09  
                   5.163496080e-01  4.034000000e-09  6.401923789e-01  
                   4.038800000e-09  7.514416244e-01  4.043600000e-09  
                   8.525815239e-01  4.048400000e-09  9.456062310e-01  
                   4.053200000e-09  1.032116536e+00  4.058000000e-09  
                   1.113397459e+00  4.062800000e-09  1.190480541e+00  
                   4.067600000e-09  1.200000000e+00  4.072400000e-09  
                   1.200000000e+00  0.000000000e+00  1.200000000e+00  
                   4.000000000e-07  1.200000000e+00  1.875817617e-11  
                   4.032442191e-09  4.972896387e-11    failed         
                   4.022082026e-09  4.046046755e-09  4.059656553e-09  
                     failed           failed         4.010480000e-09  
                   4.046046755e-09 -3.664626267e-14 -2.093337074e-14  
                  -1.571289193e-14  4.099134527e-14  3.524136488e-14  
                   5.237630643e-14  2.400000000e-11  2.396472950e-11  
                   1.000000000e+00  1.000000000e+00  1.000000000e+00  
                   2.109340790e-08 -2.163378407e-03  2.163568344e-03  
                  -2.110301167e-07    failed           failed         
                     failed           failed           failed         
                     failed           failed           failed         
                   2.400000000e-14  2.500000000e+01 1                 
 38                3.800000000e+01  4.010000000e-09  5.000000000e-12  
                   2.400000000e-11  4.000000000e-14  0.000000000e+00  
                   0.000000000e+00  4.000000000e-09  0.000000000e+00  
                   4.010000000e-09  0.000000000e+00  4.014800000e-09  
                   6.000000000e-02  4.019600000e-09  2.177445717e-01  
                   4.024400000e-09  3.768186931e-01  4.029200000e-09  
                   5.163496080e-01  4.034000000e-09  6.401923789e-01  
                   4.038800000e-09  7.514416244e-01  4.043600000e-09  
                   8.525815239e-01  4.048400000e-09  9.456062310e-01  
                   4.053200000e-09  1.032116536e+00  4.058000000e-09  
                   1.113397459e+00  4.062800000e-09  1.190480541e+00  
                   4.067600000e-09  1.200000000e+00  4.072400000e-09  
                   1.200000000e+00  0.000000000e+00  1.200000000e+00  
                   4.000000000e-07  1.200000000e+00  1.916670118e-11  
                   4.032442191e-09  5.182949643e-11    failed         
                   4.022082026e-09  4.046046755e-09  4.059656553e-09  
                     failed           failed         4.010480000e-09  
                   4.046046755e-09 -3.670682281e-14 -2.094038664e-14  
                  -1.576643618e-14  4.105908592e-14  3.525317615e-14  
                   5.255478726e-14  2.400000000e-11  2.396472950e-11  
                   1.000000000e+00  1.000000000e+00  1.000000000e+00  
                   2.109340790e-08 -2.163378407e-03  2.163568344e-03  
                  -2.110301167e-07    failed           failed         
                     failed           failed           failed         
                     failed           failed           failed         
                   2.400000000e-14  2.500000000e+01 1                 
 39                3.900000000e+01  4.010000000e-09  5.000000000e-12  
                   2.400000000e-11  4.200000000e-14  0.000000000e+00  
                   0.000000000e+00  4.000000000e-09  0.000000000e+00  
                   4.010000000e-09  0.000000000e+00  4.014800000e-09  
                   6.000000000e-02  4.019600000e-09  2.177445717e-01  
                   4.024400000e-09  3.768186931e-01  4.029200000e-09  
                   5.163496080e-01  4.034000000e-09  6.401923789e-01  
                   4.038800000e-09  7.514416244e-01  4.043600000e-09  
                   8.525815239e-01  4.048400000e-09  9.456062310e-01  
                   4.053200000e-09  1.032116536e+00  4.058000000e-09  
                   1.113397459e+00  4.062800000e-09  1.190480541e+00  
                   4.067600000e-09  1.200000000e+00  4.072400000e-09  
                   1.200000000e+00  0.000000000e+00  1.200000000e+00  
                   4.000000000e-07  1.200000000e+00  1.936510367e-11  
                   4.032442191e-09  5.281235414e-11    failed         
                   4.022082026e-09  4.046046755e-09  4.059656553e-09  
                     failed           failed         4.010480000e-09  
                   4.046046755e-09 -3.673617657e-14 -2.094383417e-14  
                  -1.579234240e-14  4.109192010e-14  3.525898008e-14  
                   5.264114134e-14  2.400000000e-11  2.396472950e-11  
                   1.000000000e+00  1.000000000e+00  1.000000000e+00  
                   2.109340790e-08 -2.163378407e-03  2.163568344e-03  
                  -2.110301167e-07    failed           failed         
                     failed           failed           failed         
                     failed           failed           failed         
                   2.400000000e-14  2.500000000e+01 1                 
 40                4.000000000e+01  4.010000000e-09  5.000000000e-12  
                   5.000000000e-11  6.000000000e-15  0.000000000e+00  
                   0.000000000e+00  4.000000000e-09  0.000000000e+00  
                   4.010000000e-09  0.000000000e+00  4.020000000e-09  
                   6.000000000e-02  4.030000000e-09  2.177445717e-01  
                   4.040000000e-09  3.768186931e-01  4.050000000e-09  
                   5.163496080e-01  4.060000000e-09  6.401923789e-01  
                   4.070000000e-09  7.514416244e-01  4.080000000e-09  
                   8.525815239e-01  4.090000000e-09  9.456062310e-01  
                   4.100000000e-09  1.032116536e+00  4.110000000e-09  
                   1.113397459e+00  4.120000000e-09  1.190480541e+00  
                   4.130000000e-09  1.200000000e+00  4.140000000e-09  
                   1.200000000e+00  0.000000000e+00  1.200000000e+00  
                   4.000000000e-07  1.200000000e+00  2.090495806e-11  
                   4.056762408e-09  6.306562247e-11    failed         
                   4.035170887e-09  4.085097407e-09  4.113451152e-09  
                     failed           failed         4.011000000e-09  
                   4.085097407e-09 -3.645787594e-14 -2.232482370e-14  
                  -1.413305224e-14  4.078062185e-14  3.758387829e-14  
                   4.711017412e-14  5.000000000e-11  4.992651980e-11  
                   1.000000000e+00  1.000000000e+00  1.000000000e+00  
                   2.109340790e-08 -2.163378407e-03  2.163568344e-03  
                  -2.110301167e-07    failed           failed         
                     failed           failed           failed         
                     failed           failed           failed         
                   2.400000000e-14  2.500000000e+01 1                 
 41                4.100000000e+01  4.010000000e-09  5.000000000e-12  
                   5.000000000e-11  9.000000000e-15  0.000000000e+00  
                   0.000000000e+00  4.000000000e-09  0.000000000e+00  
                   4.010000000e-09  0.000000000e+00  4.020000000e-09  
                   6.000000000e-02  4.030000000e-09  2.177445717e-01  
                   4.040000000e-09  3.768186931e-01  4.050000000e-09  
                   5.163496080e-01  4.060000000e-09  6.401923789e-01  
                   4.070000000e-09  7.514416244e-01  4.080000000e-09  
                   8.525815239e-01  4.090000000e-09  9.456062310e-01  
                   4.100000000e-09  1.032116536e+00  4.110000000e-09  
                   1.113397459e+00  4.120000000e-09  1.190480541e+00  
                   4.130000000e-09  1.200000000e+00  4.140000000e-09  
                   1.200000000e+00  0.000000000e+00  1.200000000e+00  
                   4.000000000e-07  1.200000000e+00  2.155288665e-11  
                   4.056763545e-09  6.439548985e-11    failed         
                   4.035170887e-09  4.085097407e-09  4.113451152e-09  
                     failed           failed         4.011000000e-09  
                   4.085097407e-09 -3.649285299e-14 -2.232914140e-14  
                  -1.416371159e-14  4.081974607e-14  3.759114714e-14  
                   4.721237196e-14  5.000000000e-11  4.992651980e-11  
                   1.000000000e+00  1.000000000e+00  1.000000000e+00  
                   2.109340790e-08 -2.163378407e-03  2.163568344e-03  
                  -2.110301167e-07    failed           failed         
                     failed           failed           failed         
                     failed           failed           failed         
                   2.400000000e-14  2.500000000e+01 1                 
 42                4.200000000e+01  4.010000000e-09  5.000000000e-12  
                   5.000000000e-11  1.200000000e-14  0.000000000e+00  
                   0.000000000e+00  4.000000000e-09  0.000000000e+00  
                   4.010000000e-09  0.000000000e+00  4.020000000e-09  
                   6.000000000e-02  4.030000000e-09  2.177445717e-01  
                   4.040000000e-09  3.768186931e-01  4.050000000e-09  
                   5.163496080e-01  4.060000000e-09  6.401923789e-01  
                   4.070000000e-09  7.514416244e-01  4.080000000e-09  
                   8.525815239e-01  4.090000000e-09  9.456062310e-01  
                   4.100000000e-09  1.032116536e+00  4.110000000e-09  
                   1.113397459e+00  4.120000000e-09  1.190480541e+00  
                   4.130000000e-09  1.200000000e+00  4.140000000e-09  
                   1.200000000e+00  0.000000000e+00  1.200000000e+00  
                   4.000000000e-07  1.200000000e+00  2.215649900e-11  
                   4.056764164e-09  6.571996940e-11    failed         
                   4.035170887e-09  4.085097407e-09  4.113451152e-09  
                     failed           failed         4.011000000e-09  
                   4.085097407e-09 -3.652676932e-14 -2.233350690e-14  
                  -1.419326243e-14  4.085768381e-14  3.759849646e-14  
                   4.731087475e-14  5.000000000e-11  4.992651980e-11  
                   1.000000000e+00  1.000000000e+00  1.000000000e+00  
                   2.109340790e-08 -2.163378407e-03  2.163568344e-03  
                  -2.110301167e-07    failed           failed         
                     failed           failed           failed         
                     failed           failed           failed         
                   2.400000000e-14  2.500000000e+01 1                 
 43                4.300000000e+01  4.010000000e-09  5.000000000e-12  
                   5.000000000e-11  1.500000000e-14  0.000000000e+00  
                   0.000000000e+00  4.000000000e-09  0.000000000e+00  
                   4.010000000e-09  0.000000000e+00  4.020000000e-09  
                   6.000000000e-02  4.030000000e-09  2.177445717e-01  
                   4.040000000e-09  3.768186931e-01  4.050000000e-09  
                   5.163496080e-01  4.060000000e-09  6.401923789e-01  
[...]
                   4.490000000e-09  3.768186931e-01  4.650000000e-09  
                   5.163496080e-01  4.810000000e-09  6.401923789e-01  
                   4.970000000e-09  7.514416244e-01  5.130000000e-09  
                   8.525815239e-01  5.290000000e-09  9.456062310e-01  
                   5.450000000e-09  1.032116536e+00  5.610000000e-09  
                   1.113397459e+00  5.770000000e-09  1.190480541e+00  
                   5.930000000e-09  1.200000000e+00  6.090000000e-09  
                   1.200000000e+00  0.000000000e+00  1.200000000e+00  
                   4.000000000e-07  1.200000000e+00 -5.328530441e-11  
                   4.758073024e-09  9.101629629e-10    failed         
                   4.412734190e-09  5.211614811e-09  5.665218426e-09  
                     failed           failed         4.026000000e-09  
                   5.211614811e-09 -3.602814655e-14 -2.562895267e-14  
                  -1.039919388e-14  4.029994022e-14  4.314638497e-14  
                   3.466397960e-14  8.000000000e-10  7.988806211e-10  
                   1.000000000e+00  1.000000000e+00  1.000000000e+00  
                   2.109340790e-08 -2.163378407e-03  2.163568344e-03  
                  -2.110301167e-07    failed           failed         
                     failed           failed           failed         
                     failed           failed           failed         
                   2.400000000e-14  2.500000000e+01 1                 
 95                9.500000000e+01  4.010000000e-09  5.000000000e-12  
                   8.000000000e-10  1.500000000e-14  0.000000000e+00  
                   0.000000000e+00  4.000000000e-09  0.000000000e+00  
                   4.010000000e-09  0.000000000e+00  4.170000000e-09  
                   6.000000000e-02  4.330000000e-09  2.177445717e-01  
                   4.490000000e-09  3.768186931e-01  4.650000000e-09  
                   5.163496080e-01  4.810000000e-09  6.401923789e-01  
                   4.970000000e-09  7.514416244e-01  5.130000000e-09  
                   8.525815239e-01  5.290000000e-09  9.456062310e-01  
                   5.450000000e-09  1.032116536e+00  5.610000000e-09  
                   1.113397459e+00  5.770000000e-09  1.190480541e+00  
                   5.930000000e-09  1.200000000e+00  6.090000000e-09  
                   1.200000000e+00  0.000000000e+00  1.200000000e+00  
                   4.000000000e-07  1.200000000e+00 -5.214912983e-11  
                   4.758073024e-09  9.174808122e-10    failed         
                   4.412734190e-09  5.211558506e-09  5.665218426e-09  
                     failed           failed         4.026000000e-09  
                   5.211558506e-09 -3.604962494e-14 -2.564036401e-14  
                  -1.040926094e-14  4.032396526e-14  4.316559597e-14  
                   3.469753645e-14  8.000000000e-10  7.988243168e-10  
                   1.000000000e+00  1.000000000e+00  1.000000000e+00  
                   2.109340790e-08 -2.163378407e-03  2.163568344e-03  
                  -2.110301167e-07    failed           failed         
                     failed           failed           failed         
                     failed           failed           failed         
                   2.400000000e-14  2.500000000e+01 1                 
 96                9.600000000e+01  4.010000000e-09  5.000000000e-12  
                   8.000000000e-10  1.800000000e-14  0.000000000e+00  
                   0.000000000e+00  4.000000000e-09  0.000000000e+00  
                   4.010000000e-09  0.000000000e+00  4.170000000e-09  
                   6.000000000e-02  4.330000000e-09  2.177445717e-01  
                   4.490000000e-09  3.768186931e-01  4.650000000e-09  
                   5.163496080e-01  4.810000000e-09  6.401923789e-01  
                   4.970000000e-09  7.514416244e-01  5.130000000e-09  
                   8.525815239e-01  5.290000000e-09  9.456062310e-01  
                   5.450000000e-09  1.032116536e+00  5.610000000e-09  
                   1.113397459e+00  5.770000000e-09  1.190480541e+00  
                   5.930000000e-09  1.200000000e+00  6.090000000e-09  
                   1.200000000e+00  0.000000000e+00  1.200000000e+00  
                   4.000000000e-07  1.200000000e+00 -5.101844281e-11  
                   4.758073024e-09  9.246597805e-10    failed         
                   4.412734190e-09  5.211558506e-09  5.665218426e-09  
                     failed           failed         4.026000000e-09  
                   5.211558506e-09 -3.606925282e-14 -2.565155998e-14  
                  -1.041769284e-14  4.034592038e-14  4.318444442e-14  
                   3.472564280e-14  8.000000000e-10  7.988243168e-10  
                   1.000000000e+00  1.000000000e+00  1.000000000e+00  
                   2.109340790e-08 -2.163378407e-03  2.163568344e-03  
                  -2.110301167e-07    failed           failed         
                     failed           failed           failed         
                     failed           failed           failed         
                   2.400000000e-14  2.500000000e+01 1                 
 97                9.700000000e+01  4.010000000e-09  5.000000000e-12  
                   8.000000000e-10  2.100000000e-14  0.000000000e+00  
                   0.000000000e+00  4.000000000e-09  0.000000000e+00  
                   4.010000000e-09  0.000000000e+00  4.170000000e-09  
                   6.000000000e-02  4.330000000e-09  2.177445717e-01  
                   4.490000000e-09  3.768186931e-01  4.650000000e-09  
                   5.163496080e-01  4.810000000e-09  6.401923789e-01  
                   4.970000000e-09  7.514416244e-01  5.130000000e-09  
                   8.525815239e-01  5.290000000e-09  9.456062310e-01  
                   5.450000000e-09  1.032116536e+00  5.610000000e-09  
                   1.113397459e+00  5.770000000e-09  1.190480541e+00  
                   5.930000000e-09  1.200000000e+00  6.090000000e-09  
                   1.200000000e+00  0.000000000e+00  1.200000000e+00  
                   4.000000000e-07  1.200000000e+00 -4.940955924e-11  
                   4.758073024e-09  9.307799783e-10    failed         
                   4.412734190e-09  5.211558506e-09  5.665218426e-09  
                     failed           failed         4.026000000e-09  
                   5.211558506e-09 -3.607302434e-14 -2.565856945e-14  
                  -1.041445490e-14  4.035013909e-14  4.319624486e-14  
                   3.471484966e-14  8.000000000e-10  7.988243168e-10  
                   1.000000000e+00  1.000000000e+00  1.000000000e+00  
                   2.109340790e-08 -2.163378407e-03  2.163568344e-03  
                  -2.110301167e-07    failed           failed         
                     failed           failed           failed         
                     failed           failed           failed         
                   2.400000000e-14  2.500000000e+01 1                 
 98                9.800000000e+01  4.010000000e-09  5.000000000e-12  
                   8.000000000e-10  2.400000000e-14  0.000000000e+00  
                   0.000000000e+00  4.000000000e-09  0.000000000e+00  
                   4.010000000e-09  0.000000000e+00  4.170000000e-09  
                   6.000000000e-02  4.330000000e-09  2.177445717e-01  
                   4.490000000e-09  3.768186931e-01  4.650000000e-09  
                   5.163496080e-01  4.810000000e-09  6.401923789e-01  
                   4.970000000e-09  7.514416244e-01  5.130000000e-09  
                   8.525815239e-01  5.290000000e-09  9.456062310e-01  
                   5.450000000e-09  1.032116536e+00  5.610000000e-09  
                   1.113397459e+00  5.770000000e-09  1.190480541e+00  
                   5.930000000e-09  1.200000000e+00  6.090000000e-09  
                   1.200000000e+00  0.000000000e+00  1.200000000e+00  
                   4.000000000e-07  1.200000000e+00 -4.807343119e-11  
                   4.758073024e-09  9.370138984e-10    failed         
                   4.412734190e-09  5.211558506e-09  5.665218426e-09  
                     failed           failed         4.026000000e-09  
                   5.211558506e-09 -3.609336746e-14 -2.566956600e-14  
                  -1.042380146e-14  4.037289425e-14  4.321475758e-14  
                   3.474600486e-14  8.000000000e-10  7.988243168e-10  
                   1.000000000e+00  1.000000000e+00  1.000000000e+00  
                   2.109340790e-08 -2.163378407e-03  2.163568344e-03  
                  -2.110301167e-07    failed           failed         
                     failed           failed           failed         
                     failed           failed           failed         
                   2.400000000e-14  2.500000000e+01 1                 
 99                9.900000000e+01  4.010000000e-09  5.000000000e-12  
                   8.000000000e-10  2.700000000e-14  0.000000000e+00  
                   0.000000000e+00  4.000000000e-09  0.000000000e+00  
                   4.010000000e-09  0.000000000e+00  4.170000000e-09  
                   6.000000000e-02  4.330000000e-09  2.177445717e-01  
                   4.490000000e-09  3.768186931e-01  4.650000000e-09  
                   5.163496080e-01  4.810000000e-09  6.401923789e-01  
                   4.970000000e-09  7.514416244e-01  5.130000000e-09  
                   8.525815239e-01  5.290000000e-09  9.456062310e-01  
                   5.450000000e-09  1.032116536e+00  5.610000000e-09  
                   1.113397459e+00  5.770000000e-09  1.190480541e+00  
                   5.930000000e-09  1.200000000e+00  6.090000000e-09  
                   1.200000000e+00  0.000000000e+00  1.200000000e+00  
                   4.000000000e-07  1.200000000e+00 -4.675984630e-11  
                   4.758073024e-09  9.429812266e-10    failed         
                   4.412734190e-09  5.211558506e-09  5.665218426e-09  
                     failed           failed         4.026000000e-09  
                   5.211558506e-09 -3.611330260e-14 -2.568045896e-14  
                  -1.043284364e-14  4.039519307e-14  4.323309589e-14  
                   3.477614548e-14  8.000000000e-10  7.988243168e-10  
                   1.000000000e+00  1.000000000e+00  1.000000000e+00  
                   2.109340790e-08 -2.163378407e-03  2.163568344e-03  
                  -2.110301167e-07    failed           failed         
                     failed           failed           failed         
                     failed           failed           failed         
                   2.400000000e-14  2.500000000e+01 1                 
 100               1.000000000e+02  4.010000000e-09  5.000000000e-12  
                   8.000000000e-10  3.000000000e-14  0.000000000e+00  
                   0.000000000e+00  4.000000000e-09  0.000000000e+00  
                   4.010000000e-09  0.000000000e+00  4.170000000e-09  
                   6.000000000e-02  4.330000000e-09  2.177445717e-01  
                   4.490000000e-09  3.768186931e-01  4.650000000e-09  
                   5.163496080e-01  4.810000000e-09  6.401923789e-01  
                   4.970000000e-09  7.514416244e-01  5.130000000e-09  
                   8.525815239e-01  5.290000000e-09  9.456062310e-01  
                   5.450000000e-09  1.032116536e+00  5.610000000e-09  
                   1.113397459e+00  5.770000000e-09  1.190480541e+00  
                   5.930000000e-09  1.200000000e+00  6.090000000e-09  
                   1.200000000e+00  0.000000000e+00  1.200000000e+00  
                   4.000000000e-07  1.200000000e+00 -4.546738535e-11  
                   4.758073024e-09  9.484545935e-10    failed         
                   4.412734190e-09  5.211558506e-09  5.665218426e-09  
                     failed           failed         4.026000000e-09  
                   5.211558506e-09 -3.612737194e-14 -2.569128369e-14  
                  -1.043608825e-14  4.041093058e-14  4.325131934e-14  
                   3.478696083e-14  8.000000000e-10  7.988243168e-10  
                   1.000000000e+00  1.000000000e+00  1.000000000e+00  
                   2.109340790e-08 -2.163378407e-03  2.163568344e-03  
                  -2.110301167e-07    failed           failed         
                     failed           failed           failed         
                     failed           failed           failed         
                   2.400000000e-14  2.500000000e+01 1                 
 101               1.010000000e+02  4.010000000e-09  5.000000000e-12  
                   8.000000000e-10  3.300000000e-14  0.000000000e+00  
                   0.000000000e+00  4.000000000e-09  0.000000000e+00  
                   4.010000000e-09  0.000000000e+00  4.170000000e-09  
                   6.000000000e-02  4.330000000e-09  2.177445717e-01  
                   4.490000000e-09  3.768186931e-01  4.650000000e-09  
                   5.163496080e-01  4.810000000e-09  6.401923789e-01  
                   4.970000000e-09  7.514416244e-01  5.130000000e-09  
                   8.525815239e-01  5.290000000e-09  9.456062310e-01  
                   5.450000000e-09  1.032116536e+00  5.610000000e-09  
                   1.113397459e+00  5.770000000e-09  1.190480541e+00  
                   5.930000000e-09  1.200000000e+00  6.090000000e-09  
                   1.200000000e+00  0.000000000e+00  1.200000000e+00  
                   4.000000000e-07  1.200000000e+00 -4.419470724e-11  
                   4.758073024e-09  9.528631439e-10    failed         
                   4.412734190e-09  5.211558506e-09  5.665218426e-09  
                     failed           failed         4.026000000e-09  
                   5.211558506e-09 -3.613336545e-14 -2.570206791e-14  
                  -1.043129754e-14  4.041763473e-14  4.326947460e-14  
                   3.477099179e-14  8.000000000e-10  7.988243168e-10  
                   1.000000000e+00  1.000000000e+00  1.000000000e+00  
                   2.109340790e-08 -2.163378407e-03  2.163568344e-03  
                  -2.110301167e-07    failed           failed         
                     failed           failed           failed         
                     failed           failed           failed         
                   2.400000000e-14  2.500000000e+01 1                 
 102               1.020000000e+02  4.010000000e-09  5.000000000e-12  
                   8.000000000e-10  3.600000000e-14  0.000000000e+00  
                   0.000000000e+00  4.000000000e-09  0.000000000e+00  
                   4.010000000e-09  0.000000000e+00  4.170000000e-09  
                   6.000000000e-02  4.330000000e-09  2.177445717e-01  
                   4.490000000e-09  3.768186931e-01  4.650000000e-09  
                   5.163496080e-01  4.810000000e-09  6.401923789e-01  
                   4.970000000e-09  7.514416244e-01  5.130000000e-09  
                   8.525815239e-01  5.290000000e-09  9.456062310e-01  
                   5.450000000e-09  1.032116536e+00  5.610000000e-09  
                   1.113397459e+00  5.770000000e-09  1.190480541e+00  
                   5.930000000e-09  1.200000000e+00  6.090000000e-09  
                   1.200000000e+00  0.000000000e+00  1.200000000e+00  
                   4.000000000e-07  1.200000000e+00 -4.294055525e-11  
                   4.758073024e-09  9.574190055e-10    failed         
                   4.412734190e-09  5.211558506e-09  5.665218426e-09  
                     failed           failed         4.026000000e-09  
                   5.211558506e-09 -3.614075036e-14 -2.571283561e-14  
                  -1.042791475e-14  4.042589525e-14  4.328760203e-14  
                   3.475971582e-14  8.000000000e-10  7.988243168e-10  
                   1.000000000e+00  1.000000000e+00  1.000000000e+00  
                   2.109340790e-08 -2.163378407e-03  2.163568344e-03  
                  -2.110301167e-07    failed           failed         
                     failed           failed           failed         
                     failed           failed           failed         
                   2.400000000e-14  2.500000000e+01 1                 
 103               1.030000000e+02  4.010000000e-09  5.000000000e-12  
                   8.000000000e-10  4.000000000e-14  0.000000000e+00  
                   0.000000000e+00  4.000000000e-09  0.000000000e+00  
                   4.010000000e-09  0.000000000e+00  4.170000000e-09  
                   6.000000000e-02  4.330000000e-09  2.177445717e-01  
                   4.490000000e-09  3.768186931e-01  4.650000000e-09  
                   5.163496080e-01  4.810000000e-09  6.401923789e-01  
                   4.970000000e-09  7.514416244e-01  5.130000000e-09  
                   8.525815239e-01  5.290000000e-09  9.456062310e-01  
                   5.450000000e-09  1.032116536e+00  5.610000000e-09  
                   1.113397459e+00  5.770000000e-09  1.190480541e+00  
                   5.930000000e-09  1.200000000e+00  6.090000000e-09  
                   1.200000000e+00  0.000000000e+00  1.200000000e+00  
                   4.000000000e-07  1.200000000e+00 -4.129569080e-11  
                   4.758073024e-09  9.632170246e-10    failed         
                   4.412734190e-09  5.211791936e-09  5.665218426e-09  
                     failed           failed         4.026000000e-09  
                   5.211791936e-09 -3.614684748e-14 -2.572719122e-14  
                  -1.041965626e-14  4.043271530e-14  4.331176973e-14  
                   3.473218755e-14  8.000000000e-10  7.990577463e-10  
                   1.000000000e+00  1.000000000e+00  1.000000000e+00  
                   2.109340790e-08 -2.163378407e-03  2.163568344e-03  
                  -2.110301167e-07    failed           failed         
                     failed           failed           failed         
                     failed           failed           failed         
                   2.400000000e-14  2.500000000e+01 1                 
 104               1.040000000e+02  4.010000000e-09  5.000000000e-12  
                   8.000000000e-10  4.200000000e-14  0.000000000e+00  
                   0.000000000e+00  4.000000000e-09  0.000000000e+00  
                   4.010000000e-09  0.000000000e+00  4.170000000e-09  
                   6.000000000e-02  4.330000000e-09  2.177445717e-01  
                   4.490000000e-09  3.768186931e-01  4.650000000e-09  
                   5.163496080e-01  4.810000000e-09  6.401923789e-01  
                   4.970000000e-09  7.514416244e-01  5.130000000e-09  
                   8.525815239e-01  5.290000000e-09  9.456062310e-01  
                   5.450000000e-09  1.032116536e+00  5.610000000e-09  
                   1.113397459e+00  5.770000000e-09  1.190480541e+00  
                   5.930000000e-09  1.200000000e+00  6.090000000e-09  
                   1.200000000e+00  0.000000000e+00  1.200000000e+00  
                   4.000000000e-07  1.200000000e+00 -4.048436840e-11  
                   4.758073024e-09  9.661339350e-10    failed         
                   4.412734190e-09  5.211896743e-09  5.665218426e-09  
                     failed           failed         4.026000000e-09  
                   5.211896743e-09 -3.614646119e-14 -2.573437761e-14  
                  -1.041208358e-14  4.043228321e-14  4.332386802e-14  
                   3.470694528e-14  8.000000000e-10  7.991625536e-10  
                   1.000000000e+00  1.000000000e+00  1.000000000e+00  
                   2.109340790e-08 -2.163378407e-03  2.163568344e-03  
                  -2.110301167e-07    failed           failed         
                     failed           failed           failed         
                     failed           failed           failed         
                   2.400000000e-14  2.500000000e+01 1                 
