 ****** HSPICE -- F-2011.09-SP1 64-BIT (Nov 18 2011) linux ******               
  Copyright (C) 2011 Synopsys, Inc. All Rights Reserved.                        
  Unpublished-rights reserved under US copyright laws.
  This program is protected by law and is subject to the
  terms and conditions of the license agreement from Synopsys.
  Use of this program is your acceptance to be bound by the
  license agreement. HSPICE is the trademark of Synopsys, Inc.
  Input File: /home/Rezayi/Desktop/NCXtemplate/creation/PassTransistor/Or3/tOut_
  Command line options: -i /home/Rezayi/Desktop/NCXtemplate/creation/PassTransistor/Or3/tOut_B_0001f/tOut_B_0001f.sp -o /home/Rezayi/Desktop/NCXtemplate/creation/PassTransistor/Or3/tOut_B_0001f/tOut_B_0001f
 lic:  
 lic: FLEXlm: v10.8 
 lic: USER:   Rezayi               HOSTNAME: Microelectronic.lab.edu 
 lic: HOSTID: ac162d8b13a0         PID:      5303 
 lic: Using FLEXlm license file: 
 lic: /opt/Admin/cadence.dat 
 lic: Checkout 1 hspice 
 lic: License/Maintenance for hspice will expire on 31-dec-2019/2019.12 
 lic: NODE LOCKED license on hostid ac162d8b13a0 
 lic:   
  **warning** Warning(s) associated with encrypted block(s) were suppressed due to encrypted content.

  **warning** (/home/Rezayi/Desktop/NCXtemplate/creation/../netlists/or3.spc:9) Above line is not allowed within subcircuit. The line is ignored.
  **info**  the obsolete option nopage is ignored
  **info** (/home/Rezayi/Desktop/NCXtemplate/creation/PassTransistor/Or3/tOut_B_0001f/tOut_B_0001f.sp:139) DC voltage reset to initial transient source value              in source        0:vn_a2               new dc=  0.0000D+00
  **warning** (/home/Rezayi/Desktop/NCXtemplate/creation/PassTransistor/Or3/tOut_B_0001f/tOut_B_0001f.sp:82) Capacitance value for element cld_out <=0; check the value.
  

 **warning** the following singular supplies were terminated to 1 meg resistor 
   supply       node1            node2
  vn_vdd                  0:vdd              defined in subckt 0                     0:0                defined in subckt 0               
  vn_vss                  0:vss              defined in subckt 0                     0:0                defined in subckt 0               
      
 *****************************************************************
 ******  option summary
 ******
 runlvl  = 5         bypass  = 2         
  Opening plot unit= 15
 file=/home/Rezayi/Desktop/NCXtemplate/creation/PassTransistor/Or3/tOut_B_0001f


   *** data name = stimdata , index =     1 ***

 ******  
 * hspice timing acquisition

  ******  transient analysis tnom=  25.000 temp=  25.000 *****
 nc_delay_b_out= 4.178001185e-09  targ= 5.189954518e-09   trig= 1.011953333e-09
 nc_inref_b= 1.011953333e-09
  **warning** (/home/Rezayi/Desktop/NCXtemplate/creation/PassTransistor/Or3/tOut_B_0001f/tOut_B_0001f.sp:200) .MEASURE  nc_optr_out never reached the trigger value, Measurement failed!
  **warning** (/home/Rezayi/Desktop/NCXtemplate/creation/PassTransistor/Or3/tOut_B_0001f/tOut_B_0001f.sp:200) .MEASURE  nc_optr_out never reached the target value, Measurement failed!
   nc_optr_out= failed                          trig= not found
   nc_fulloptr_out= failed                          trig= not found
 t_b_trip1= 1.013343236e-09
 t_b_trip2= 1.023333333e-09
 t_stop_b= 1.027024061e-09
   t_stop_out= failed
   t_simstop= failed                         measure parameter failed
 t_b_trip_incap1= 1.010166667e-09
 t_b_trip_incap2= 1.023333333e-09
 nc_intg_i_b= 8.359678895e-15  from= 1.010166667e-09     to= 1.023333333e-09
 nc_intg_i1_b= 5.823401947e-16  from= 1.010166667e-09     to= 1.011953333e-09
 nc_intg_i2_b= 7.777338701e-15  from= 1.011953333e-09     to= 1.023333333e-09
 nc_incap_b= 7.966151034e-15
 nc_incap_c1_b= 6.231169692e-15
 nc_incap_c2_b= 8.135768100e-15
 nc_iptr_b= 1.000000000e-11
 real_iptr_b= 9.990097654e-12  targ= 1.023333333e-09   trig= 1.013343236e-09
 nc_when_a= 0.000000000e+00
 nc_when_bp= 0.000000000e+00
 nc_when_b= 0.000000000e+00
 nc_when_c= 0.000000000e+00
 nc_when_cp= 0.000000000e+00
 nc_when_out= 0.000000000e+00
 nc_leak_i_a= 1.659887347e-07  from= 0.000000000e+00     to= 1.000000000e-09
 nc_leak_i_bp= 4.297384704e-09  from= 0.000000000e+00     to= 1.000000000e-09
 nc_leak_i_b=-2.686369379e-07  from= 0.000000000e+00     to= 1.000000000e-09
 nc_leak_i_c= 9.210148654e-08  from= 0.000000000e+00     to= 1.000000000e-09
 nc_leak_i_cp= 6.249331880e-09  from= 0.000000000e+00     to= 1.000000000e-09
 nc_leak_i_vdd=-1.320000000e-06  from= 0.000000000e+00     to= 1.000000000e-09
 nc_leak_i_vss= 0.000000000e+00  from= 0.000000000e+00     to= 1.000000000e-09
   nc_dyn_energy= failed                         measure parameter failed
   t_int_energy= failed                         measure parameter failed
   nc_int_energy= failed                         measure parameter failed
   nc_dyn_eng_vdd= failed                         measure parameter failed
   nc_dyn_eng_vss= failed                         measure parameter failed
   nc_dyn_abs_energy= failed                         measure parameter failed
   nc_charge_vdd= failed                         measure parameter failed
   nc_charge_vss= failed                         measure parameter failed
 nc_sidecap= 0.000000000e+00
 def_cap_out= 0.000000000e+00

          ***** job concluded
 ****** HSPICE -- F-2011.09-SP1 64-BIT (Nov 18 2011) linux ******               
 ******  
 * hspice timing acquisition

  ******  job statistics summary tnom=  25.000 temp=  25.000 *****
  
  
 ******  Machine Information  ******
 CPU:
 model name	: Intel(R) Xeon(R) CPU E5-2680 0 @ 2.70GHz
 cpu MHz	: 2693.620
  
 OS:
 Linux version 2.6.18-406.el5 (mockbuild@builder17.centos.org) (gcc version 4.1.
 2 20080704 (Red Hat 4.1.2-55)) #1 SMP Tue Jun 2 17:25:57 EDT 2015


  ******  HSPICE Threads Information  ******

  Command Line Threads Count :     1
  Available CPU Count        :    16
  Actual Threads Count       :     1


  ******  Circuit Statistics  ******
  # nodes       =      40 # elements   =      72
  # resistors   =      26 # capacitors =      13 # inductors   =       0
  # mutual_inds =       0 # vccs       =       0 # vcvs        =       0
  # cccs        =       0 # ccvs       =       0 # volt_srcs   =      13
  # curr_srcs   =       0 # diodes     =      16 # bjts        =       0
  # jfets       =       0 # mosfets    =       4 # U elements  =       0
  # T elements  =       0 # W elements =       0 # B elements  =       0
  # S elements  =       0 # P elements =       0 # va device   =       0
  # vector_srcs =       0


  ******  Runtime Statistics (seconds)  ******

  analysis           time    # points   tot. iter  conv.iter
  op point           0.00           1          21
  transient          0.01         121         141          68 rev=         6
  readin             0.76
  errchk             0.02
  setup              0.00
  output             0.00


           peak memory used        183.45 megabytes
           total cpu time            0.79 seconds
           total elapsed time        7.36 seconds
           job started at     16:57:10 05/14/2016
           job ended   at     16:57:18 05/14/2016


 lic: Release hspice token(s) 
