$DATA1 SOURCE='HSPICE' VERSION='F-2011.09-SP1 64-BIT'
.TITLE '* hspice timing acquisition'
 index            index            nc_td            adrv_cap          
                  iptr             cap_out          t_a0              
                  v_a0             t_a1             v_a1              
                  t_a2             v_a2             t_a3              
                  v_a3             t_a4             v_a4              
                  t_a5             v_a5             t_a6              
                  v_a6             t_a7             v_a7              
                  t_a8             v_a8             t_a9              
                  v_a9             t_a10            v_a10             
                  t_a11            v_a11            t_a12             
                  v_a12            t_a13            v_a13             
                  t_a14            v_a14            t_a15             
                  v_a15            t_ap0            v_ap0             
                  t_ap1            v_ap1            t_b0              
                  v_b0             t_b1             v_b1              
                  nc_delay_a_out   nc_inref_a       nc_optr_out       
                  nc_fulloptr_out  t_a_trip1        t_a_trip2         
                  t_stop_a         t_stop_out       t_simstop         
                  t_a_trip_incap1  t_a_trip_incap2  nc_intg_i_a       
                  nc_intg_i1_a     nc_intg_i2_a     nc_incap_a        
                  nc_incap_c1_a    nc_incap_c2_a    nc_iptr_a         
                  real_iptr_a      nc_when_a        nc_when_ap        
                  nc_when_b        nc_when_out      nc_leak_i_a       
                  nc_leak_i_ap     nc_leak_i_b      nc_leak_i_vdd     
                  nc_leak_i_vss    nc_dyn_energy    t_int_energy      
                  nc_int_energy    nc_dyn_eng_vdd   nc_dyn_eng_vss    
                  nc_dyn_abs_energy nc_charge_vdd    nc_charge_vss     
                  nc_sidecap       def_cap_out      temper            
                  alter#            
 1                 1.000000000e+00  1.010000000e-09  5.000000000e-12  
                   1.000000000e-11  0.000000000e+00  0.000000000e+00  
                   1.320000000e+00  1.000000000e-09  1.320000000e+00  
                   1.010000000e-09  1.320000000e+00  1.011666667e-09  
                   1.254000000e+00  1.013333333e-09  1.056000000e+00  
                   1.015000000e-09  8.810738777e-01  1.016666667e-09  
                   7.286191572e-01  1.018333333e-09  5.940000000e-01  
                   1.020000000e-09  4.735369389e-01  1.021666667e-09  
                   3.643095786e-01  1.023333333e-09  2.640000000e-01  
                   1.025000000e-09  1.707684694e-01  1.026666667e-09  
                   8.315478929e-02  1.028333333e-09  0.000000000e+00  
                   1.030000000e-09  0.000000000e+00  1.031666667e-09  
                   0.000000000e+00  0.000000000e+00  0.000000000e+00  
                   1.000000000e-07  0.000000000e+00  0.000000000e+00  
                   0.000000000e+00  1.000000000e-07  0.000000000e+00  
                     failed         1.011953333e-09    failed         
                     failed         1.013372223e-09  1.023333333e-09  
                   1.027023049e-09  1.013762898e-09  1.027023049e-09  
                   1.010166667e-09  1.023333333e-09  1.353526865e-16  
                   1.008067513e-17  1.252720114e-16  1.289810239e-16  
                   1.078654675e-16  1.310453451e-16  1.000000000e-11  
                   9.961110445e-12  0.000000000e+00  0.000000000e+00  
                   0.000000000e+00  0.000000000e+00 -5.551860683e-10  
                   1.048124544e-12  5.541379434e-10 -1.320000000e-06  
                   0.000000000e+00  2.966096124e-17  1.702304938e-11  
                   2.966096124e-17  2.966096124e-17  0.000000000e+00  
                   2.966096124e-17 -2.247042518e-17  0.000000000e+00  
                   0.000000000e+00  0.000000000e+00  2.500000000e+01  
                  1                 
