$DATA1 SOURCE='HSPICE' VERSION='F-2011.09-SP1 64-BIT'
.TITLE '* hspice timing acquisition'
 index            index            nc_td            adrv_cap          
                  iptr             cap_out          t_a0              
                  v_a0             t_a1             v_a1              
                  t_bp0            v_bp0            t_bp1             
                  v_bp1            t_b0             v_b0              
                  t_b1             v_b1             t_c0              
                  v_c0             t_c1             v_c1              
                  t_c2             v_c2             t_c3              
                  v_c3             t_c4             v_c4              
                  t_c5             v_c5             t_c6              
                  v_c6             t_c7             v_c7              
                  t_c8             v_c8             t_c9              
                  v_c9             t_c10            v_c10             
                  t_c11            v_c11            t_c12             
                  v_c12            t_c13            v_c13             
                  t_c14            v_c14            t_c15             
                  v_c15            t_cp0            v_cp0             
                  t_cp1            v_cp1            nc_delay_c_out    
                  nc_inref_c       nc_optr_out      nc_fulloptr_out   
                  t_c_trip1        t_c_trip2        t_stop_c          
                  t_stop_out       t_simstop        t_c_trip_incap1   
                  t_c_trip_incap2  nc_intg_i_c      nc_intg_i1_c      
                  nc_intg_i2_c     nc_incap_c       nc_incap_c1_c     
                  nc_incap_c2_c    nc_iptr_c        real_iptr_c       
                  nc_when_a        nc_when_bp       nc_when_b         
                  nc_when_c        nc_when_cp       nc_when_out       
                  nc_leak_i_a      nc_leak_i_bp     nc_leak_i_b       
                  nc_leak_i_c      nc_leak_i_cp     nc_leak_i_vdd     
                  nc_leak_i_vss    nc_dyn_energy    t_int_energy      
                  nc_int_energy    nc_dyn_eng_vdd   nc_dyn_eng_vss    
                  nc_dyn_abs_energy nc_charge_vdd    nc_charge_vss     
                  nc_sidecap       def_cap_out      temper            
                  alter#            
 1                 1.000000000e+00  1.010000000e-09  5.000000000e-12  
                   1.000000000e-11  0.000000000e+00  0.000000000e+00  
                   1.320000000e+00  1.000000000e-07  1.320000000e+00  
                   0.000000000e+00  0.000000000e+00  1.000000000e-07  
                   0.000000000e+00  0.000000000e+00  1.320000000e+00  
                   1.000000000e-07  1.320000000e+00  0.000000000e+00  
                   1.320000000e+00  1.000000000e-09  1.320000000e+00  
                   1.010000000e-09  1.320000000e+00  1.011666667e-09  
                   1.254000000e+00  1.013333333e-09  1.056000000e+00  
                   1.015000000e-09  8.810738777e-01  1.016666667e-09  
                   7.286191572e-01  1.018333333e-09  5.940000000e-01  
                   1.020000000e-09  4.735369389e-01  1.021666667e-09  
                   3.643095786e-01  1.023333333e-09  2.640000000e-01  
                   1.025000000e-09  1.707684694e-01  1.026666667e-09  
                   8.315478929e-02  1.028333333e-09  0.000000000e+00  
                   1.030000000e-09  0.000000000e+00  1.031666667e-09  
                   0.000000000e+00  0.000000000e+00  0.000000000e+00  
                   1.000000000e-07  0.000000000e+00  1.258660704e-11  
                   1.011953333e-09    failed           failed         
                   1.013340442e-09  1.023333333e-09  1.027020601e-09  
                     failed           failed         1.010166667e-09  
                   1.023333333e-09  3.014558662e-16  3.171952304e-17  
                   2.697363431e-16  2.872649763e-16  3.394059561e-16  
                   2.821675152e-16  1.000000000e-11  9.992891357e-12  
                   1.000000000e+00  0.000000000e+00  1.000000000e+00  
                   0.000000000e+00  0.000000000e+00  0.000000000e+00  
                  -2.134549414e-10  2.261886434e-10 -1.188672189e-10  
                  -1.188808740e-10  2.250143849e-10 -1.320000000e-06  
                   0.000000000e+00    failed           failed         
                     failed           failed           failed         
                     failed           failed           failed         
                   0.000000000e+00  0.000000000e+00  2.500000000e+01  
                  1                 
