$DATA1 SOURCE='HSPICE' VERSION='F-2011.09-SP1 64-BIT'
.TITLE '* hspice timing acquisition'
 index            index            nc_td            adrv_cap          
                  iptr             cap_out          t_a0              
                  v_a0             t_a1             v_a1              
                  t_a2             v_a2             t_a3              
                  v_a3             t_a4             v_a4              
                  t_a5             v_a5             t_a6              
                  v_a6             t_a7             v_a7              
                  t_a8             v_a8             t_a9              
                  v_a9             t_a10            v_a10             
                  t_a11            v_a11            t_a12             
                  v_a12            t_a13            v_a13             
                  t_a14            v_a14            t_a15             
                  v_a15            t_b0             v_b0              
                  t_b1             v_b1             nc_delay_a_out    
                  nc_inref_a       nc_optr_out      nc_fulloptr_out   
                  t_a_trip1        t_a_trip2        t_stop_a          
                  t_stop_out       t_simstop        t_a_trip_incap1   
                  t_a_trip_incap2  nc_intg_i_a      nc_intg_i1_a      
                  nc_intg_i2_a     nc_incap_a       nc_incap_c1_a     
                  nc_incap_c2_a    nc_iptr_a        real_iptr_a       
                  nc_when_a        nc_when_b        nc_when_out       
                  nc_leak_i_a      nc_leak_i_b      nc_leak_i_vss     
                  nc_leak_i_vdd    nc_dyn_energy    t_int_energy      
                  nc_int_energy    nc_dyn_eng_vss   nc_dyn_eng_vdd    
                  nc_dyn_abs_energy nc_charge_vss    nc_charge_vdd     
                  nc_sidecap       temper           alter#            
 1                 1.000000000e+00  4.010000000e-09  5.000000000e-12  
                   6.000000000e-12  6.000000000e-15  0.000000000e+00  
                   1.200000000e+00  4.000000000e-09  1.200000000e+00  
                   4.010000000e-09  1.200000000e+00  4.011200000e-09  
                   1.140000000e+00  4.012400000e-09  9.822554283e-01  
                   4.013600000e-09  8.231813069e-01  4.014800000e-09  
                   6.836503920e-01  4.016000000e-09  5.598076211e-01  
                   4.017200000e-09  4.485583756e-01  4.018400000e-09  
                   3.474184761e-01  4.019600000e-09  2.543937690e-01  
                   4.020800000e-09  1.678834640e-01  4.022000000e-09  
                   8.660254038e-02  4.023200000e-09  9.519458516e-03  
                   4.024400000e-09  0.000000000e+00  4.025600000e-09  
                   0.000000000e+00  0.000000000e+00  1.200000000e+00  
                   4.000000000e-07  1.200000000e+00  1.536819198e-11  
                   4.015611137e-09  6.708652198e-12    failed         
                   4.013020506e-09  4.019017534e-09  4.022414138e-09  
                     failed           failed         4.010120000e-09  
                   4.019017534e-09  2.821965924e-14  1.745377266e-14  
                   1.076588657e-14  3.156561436e-14  2.938345566e-14  
                   3.588628857e-14  6.000000000e-12  5.997027880e-12  
                   0.000000000e+00  1.000000000e+00  0.000000000e+00  
                  -3.995069484e-08 -1.439546723e-07  2.394080512e-07  
                  -5.550268401e-08    failed           failed         
                     failed           failed           failed         
                     failed           failed           failed         
                   2.400000000e-14  2.500000000e+01 1                 
 2                 2.000000000e+00  4.010000000e-09  5.000000000e-12  
                   6.000000000e-12  9.000000000e-15  0.000000000e+00  
                   1.200000000e+00  4.000000000e-09  1.200000000e+00  
                   4.010000000e-09  1.200000000e+00  4.011200000e-09  
                   1.140000000e+00  4.012400000e-09  9.822554283e-01  
                   4.013600000e-09  8.231813069e-01  4.014800000e-09  
                   6.836503920e-01  4.016000000e-09  5.598076211e-01  
                   4.017200000e-09  4.485583756e-01  4.018400000e-09  
                   3.474184761e-01  4.019600000e-09  2.543937690e-01  
                   4.020800000e-09  1.678834640e-01  4.022000000e-09  
                   8.660254038e-02  4.023200000e-09  9.519458516e-03  
                   4.024400000e-09  0.000000000e+00  4.025600000e-09  
                   0.000000000e+00  0.000000000e+00  1.200000000e+00  
                   4.000000000e-07  1.200000000e+00  1.577293966e-11  
                   4.015610976e-09  6.912290095e-12    failed         
                   4.013022327e-09  4.019006696e-09  4.022414138e-09  
                     failed           failed         4.010120000e-09  
                   4.019006696e-09  2.829117223e-14  1.748808621e-14  
                   1.080308602e-14  3.164560653e-14  2.944122258e-14  
                   3.601028674e-14  6.000000000e-12  5.984369169e-12  
                   0.000000000e+00  1.000000000e+00  0.000000000e+00  
                  -3.995069484e-08 -1.439546723e-07  2.394080512e-07  
                  -5.550268401e-08    failed           failed         
                     failed           failed           failed         
                     failed           failed           failed         
                   2.400000000e-14  2.500000000e+01 1                 
 3                 3.000000000e+00  4.010000000e-09  5.000000000e-12  
                   6.000000000e-12  1.200000000e-14  0.000000000e+00  
                   1.200000000e+00  4.000000000e-09  1.200000000e+00  
                   4.010000000e-09  1.200000000e+00  4.011200000e-09  
                   1.140000000e+00  4.012400000e-09  9.822554283e-01  
                   4.013600000e-09  8.231813069e-01  4.014800000e-09  
                   6.836503920e-01  4.016000000e-09  5.598076211e-01  
                   4.017200000e-09  4.485583756e-01  4.018400000e-09  
                   3.474184761e-01  4.019600000e-09  2.543937690e-01  
                   4.020800000e-09  1.678834640e-01  4.022000000e-09  
                   8.660254038e-02  4.023200000e-09  9.519458516e-03  
                   4.024400000e-09  0.000000000e+00  4.025600000e-09  
                   0.000000000e+00  0.000000000e+00  1.200000000e+00  
                   4.000000000e-07  1.200000000e+00  1.615569976e-11  
                   4.015611009e-09  7.118484465e-12    failed         
                   4.013022315e-09  4.019006682e-09  4.022414138e-09  
                     failed           failed         4.010120000e-09  
                   4.019006682e-09  2.833276288e-14  1.752137879e-14  
                   1.081138409e-14  3.169212850e-14  2.949727068e-14  
                   3.603794697e-14  6.000000000e-12  5.984367259e-12  
                   0.000000000e+00  1.000000000e+00  0.000000000e+00  
                  -3.995069484e-08 -1.439546722e-07  2.394080512e-07  
                  -5.550268401e-08    failed           failed         
                     failed           failed           failed         
                     failed           failed           failed         
                   2.400000000e-14  2.500000000e+01 1                 
 4                 4.000000000e+00  4.010000000e-09  5.000000000e-12  
                   6.000000000e-12  1.500000000e-14  0.000000000e+00  
                   1.200000000e+00  4.000000000e-09  1.200000000e+00  
                   4.010000000e-09  1.200000000e+00  4.011200000e-09  
                   1.140000000e+00  4.012400000e-09  9.822554283e-01  
                   4.013600000e-09  8.231813069e-01  4.014800000e-09  
                   6.836503920e-01  4.016000000e-09  5.598076211e-01  
                   4.017200000e-09  4.485583756e-01  4.018400000e-09  
                   3.474184761e-01  4.019600000e-09  2.543937690e-01  
                   4.020800000e-09  1.678834640e-01  4.022000000e-09  
                   8.660254038e-02  4.023200000e-09  9.519458516e-03  
                   4.024400000e-09  0.000000000e+00  4.025600000e-09  
                   0.000000000e+00  0.000000000e+00  1.200000000e+00  
                   4.000000000e-07  1.200000000e+00  1.651352842e-11  
                   4.015611066e-09  7.314597951e-12    failed         
                   4.013022309e-09  4.019006702e-09  4.022414138e-09  
                     failed           failed         4.010120000e-09  
                   4.019006702e-09  2.836792633e-14  1.754923435e-14  
                   1.081869197e-14  3.173146122e-14  2.954416558e-14  
                   3.606230658e-14  6.000000000e-12  5.984393075e-12  
                   0.000000000e+00  1.000000000e+00  0.000000000e+00  
                  -3.995069484e-08 -1.439546722e-07  2.394080512e-07  
                  -5.550268401e-08    failed           failed         
                     failed           failed           failed         
                     failed           failed           failed         
                   2.400000000e-14  2.500000000e+01 1                 
 5                 5.000000000e+00  4.010000000e-09  5.000000000e-12  
                   6.000000000e-12  1.800000000e-14  0.000000000e+00  
                   1.200000000e+00  4.000000000e-09  1.200000000e+00  
                   4.010000000e-09  1.200000000e+00  4.011200000e-09  
                   1.140000000e+00  4.012400000e-09  9.822554283e-01  
                   4.013600000e-09  8.231813069e-01  4.014800000e-09  
                   6.836503920e-01  4.016000000e-09  5.598076211e-01  
                   4.017200000e-09  4.485583756e-01  4.018400000e-09  
                   3.474184761e-01  4.019600000e-09  2.543937690e-01  
                   4.020800000e-09  1.678834640e-01  4.022000000e-09  
                   8.660254038e-02  4.023200000e-09  9.519458516e-03  
                   4.024400000e-09  0.000000000e+00  4.025600000e-09  
                   0.000000000e+00  0.000000000e+00  1.200000000e+00  
                   4.000000000e-07  1.200000000e+00  1.687694088e-11  
                   4.015611108e-09  7.525245469e-12    failed         
                   4.013022303e-09  4.019006708e-09  4.022414138e-09  
                     failed           failed         4.010120000e-09  
                   4.019006708e-09  2.839796251e-14  1.757284311e-14  
                   1.082511941e-14  3.176505874e-14  2.958391095e-14  
                   3.608373136e-14  6.000000000e-12  5.984405222e-12  
                   0.000000000e+00  1.000000000e+00  0.000000000e+00  
                  -3.995069484e-08 -1.439546722e-07  2.394080512e-07  
                  -5.550268401e-08    failed           failed         
                     failed           failed           failed         
                     failed           failed           failed         
                   2.400000000e-14  2.500000000e+01 1                 
 6                 6.000000000e+00  4.010000000e-09  5.000000000e-12  
                   6.000000000e-12  2.100000000e-14  0.000000000e+00  
                   1.200000000e+00  4.000000000e-09  1.200000000e+00  
                   4.010000000e-09  1.200000000e+00  4.011200000e-09  
                   1.140000000e+00  4.012400000e-09  9.822554283e-01  
                   4.013600000e-09  8.231813069e-01  4.014800000e-09  
                   6.836503920e-01  4.016000000e-09  5.598076211e-01  
                   4.017200000e-09  4.485583756e-01  4.018400000e-09  
                   3.474184761e-01  4.019600000e-09  2.543937690e-01  
                   4.020800000e-09  1.678834640e-01  4.022000000e-09  
                   8.660254038e-02  4.023200000e-09  9.519458516e-03  
                   4.024400000e-09  0.000000000e+00  4.025600000e-09  
                   0.000000000e+00  0.000000000e+00  1.200000000e+00  
                   4.000000000e-07  1.200000000e+00  1.718888180e-11  
                   4.015611141e-09  7.753782760e-12    failed         
                   4.013022298e-09  4.019006707e-09  4.022414138e-09  
                     failed           failed         4.010120000e-09  
                   4.019006707e-09  2.842390962e-14  1.759310358e-14  
                   1.083080604e-14  3.179408235e-14  2.961801950e-14  
                   3.610268679e-14  6.000000000e-12  5.984409133e-12  
                   0.000000000e+00  1.000000000e+00  0.000000000e+00  
                  -3.995069484e-08 -1.439546722e-07  2.394080512e-07  
                  -5.550268401e-08    failed           failed         
                     failed           failed           failed         
                     failed           failed           failed         
                   2.400000000e-14  2.500000000e+01 1                 
 7                 7.000000000e+00  4.010000000e-09  5.000000000e-12  
                   6.000000000e-12  2.400000000e-14  0.000000000e+00  
                   1.200000000e+00  4.000000000e-09  1.200000000e+00  
                   4.010000000e-09  1.200000000e+00  4.011200000e-09  
                   1.140000000e+00  4.012400000e-09  9.822554283e-01  
                   4.013600000e-09  8.231813069e-01  4.014800000e-09  
                   6.836503920e-01  4.016000000e-09  5.598076211e-01  
                   4.017200000e-09  4.485583756e-01  4.018400000e-09  
                   3.474184761e-01  4.019600000e-09  2.543937690e-01  
                   4.020800000e-09  1.678834640e-01  4.022000000e-09  
                   8.660254038e-02  4.023200000e-09  9.519458516e-03  
                   4.024400000e-09  0.000000000e+00  4.025600000e-09  
                   0.000000000e+00  0.000000000e+00  1.200000000e+00  
                   4.000000000e-07  1.200000000e+00  1.751412293e-11  
                   4.015611166e-09  7.982392550e-12    failed         
                   4.013022293e-09  4.019006701e-09  4.022414138e-09  
                     failed           failed         4.010120000e-09  
                   4.019006701e-09  2.844654486e-14  1.761067846e-14  
                   1.083586640e-14  3.181940141e-14  2.964760684e-14  
                   3.611955467e-14  6.000000000e-12  5.984408013e-12  
                   0.000000000e+00  1.000000000e+00  0.000000000e+00  
                  -3.995069484e-08 -1.439546722e-07  2.394080512e-07  
                  -5.550268401e-08    failed           failed         
                     failed           failed           failed         
                     failed           failed           failed         
                   2.400000000e-14  2.500000000e+01 1                 
 8                 8.000000000e+00  4.010000000e-09  5.000000000e-12  
                   6.000000000e-12  2.700000000e-14  0.000000000e+00  
                   1.200000000e+00  4.000000000e-09  1.200000000e+00  
                   4.010000000e-09  1.200000000e+00  4.011200000e-09  
                   1.140000000e+00  4.012400000e-09  9.822554283e-01  
                   4.013600000e-09  8.231813069e-01  4.014800000e-09  
                   6.836503920e-01  4.016000000e-09  5.598076211e-01  
                   4.017200000e-09  4.485583756e-01  4.018400000e-09  
                   3.474184761e-01  4.019600000e-09  2.543937690e-01  
                   4.020800000e-09  1.678834640e-01  4.022000000e-09  
                   8.660254038e-02  4.023200000e-09  9.519458516e-03  
                   4.024400000e-09  0.000000000e+00  4.025600000e-09  
                   0.000000000e+00  0.000000000e+00  1.200000000e+00  
                   4.000000000e-07  1.200000000e+00  1.783012308e-11  
                   4.015611185e-09  8.218195643e-12    failed         
                   4.013022288e-09  4.019006692e-09  4.022414138e-09  
                     failed           failed         4.010120000e-09  
                   4.019006692e-09  2.846646122e-14  1.762606692e-14  
                   1.084039430e-14  3.184167922e-14  2.967351333e-14  
                   3.613464768e-14  6.000000000e-12  5.984403808e-12  
                   0.000000000e+00  1.000000000e+00  0.000000000e+00  
                  -3.995069484e-08 -1.439546722e-07  2.394080512e-07  
                  -5.550268401e-08    failed           failed         
                     failed           failed           failed         
                     failed           failed           failed         
                   2.400000000e-14  2.500000000e+01 1                 
 9                 9.000000000e+00  4.010000000e-09  5.000000000e-12  
                   6.000000000e-12  3.000000000e-14  0.000000000e+00  
                   1.200000000e+00  4.000000000e-09  1.200000000e+00  
                   4.010000000e-09  1.200000000e+00  4.011200000e-09  
                   1.140000000e+00  4.012400000e-09  9.822554283e-01  
                   4.013600000e-09  8.231813069e-01  4.014800000e-09  
                   6.836503920e-01  4.016000000e-09  5.598076211e-01  
                   4.017200000e-09  4.485583756e-01  4.018400000e-09  
                   3.474184761e-01  4.019600000e-09  2.543937690e-01  
                   4.020800000e-09  1.678834640e-01  4.022000000e-09  
                   8.660254038e-02  4.023200000e-09  9.519458516e-03  
                   4.024400000e-09  0.000000000e+00  4.025600000e-09  
                   0.000000000e+00  0.000000000e+00  1.200000000e+00  
                   4.000000000e-07  1.200000000e+00  1.816956215e-11  
                   4.015611201e-09  8.483025723e-12    failed         
                   4.013022284e-09  4.019006682e-09  4.022414138e-09  
                     failed           failed         4.010120000e-09  
                   4.019006682e-09  2.848411872e-14  1.763965199e-14  
                   1.084446673e-14  3.186143034e-14  2.969638382e-14  
                   3.614822244e-14  6.000000000e-12  5.984397734e-12  
                   0.000000000e+00  1.000000000e+00  0.000000000e+00  
                  -3.995069483e-08 -1.439546722e-07  2.394080512e-07  
                  -5.550268401e-08    failed           failed         
                     failed           failed           failed         
                     failed           failed           failed         
                   2.400000000e-14  2.500000000e+01 1                 
 10                1.000000000e+01  4.010000000e-09  5.000000000e-12  
                   6.000000000e-12  3.300000000e-14  0.000000000e+00  
                   1.200000000e+00  4.000000000e-09  1.200000000e+00  
                   4.010000000e-09  1.200000000e+00  4.011200000e-09  
                   1.140000000e+00  4.012400000e-09  9.822554283e-01  
                   4.013600000e-09  8.231813069e-01  4.014800000e-09  
                   6.836503920e-01  4.016000000e-09  5.598076211e-01  
                   4.017200000e-09  4.485583756e-01  4.018400000e-09  
                   3.474184761e-01  4.019600000e-09  2.543937690e-01  
                   4.020800000e-09  1.678834640e-01  4.022000000e-09  
                   8.660254038e-02  4.023200000e-09  9.519458516e-03  
                   4.024400000e-09  0.000000000e+00  4.025600000e-09  
                   0.000000000e+00  0.000000000e+00  1.200000000e+00  
                   4.000000000e-07  1.200000000e+00  1.846930821e-11  
                   4.015611214e-09  8.716422183e-12    failed         
                   4.013022281e-09  4.019006671e-09  4.022414138e-09  
                     failed           failed         4.010120000e-09  
                   4.019006671e-09  2.849987956e-14  1.765173240e-14  
                   1.084814716e-14  3.187905991e-14  2.971672121e-14  
                   3.616049054e-14  6.000000000e-12  5.984390560e-12  
                   0.000000000e+00  1.000000000e+00  0.000000000e+00  
                  -3.995069483e-08 -1.439546722e-07  2.394080512e-07  
                  -5.550268401e-08    failed           failed         
                     failed           failed           failed         
                     failed           failed           failed         
                   2.400000000e-14  2.500000000e+01 1                 
 11                1.100000000e+01  4.010000000e-09  5.000000000e-12  
                   6.000000000e-12  3.600000000e-14  0.000000000e+00  
                   1.200000000e+00  4.000000000e-09  1.200000000e+00  
                   4.010000000e-09  1.200000000e+00  4.011200000e-09  
                   1.140000000e+00  4.012400000e-09  9.822554283e-01  
                   4.013600000e-09  8.231813069e-01  4.014800000e-09  
                   6.836503920e-01  4.016000000e-09  5.598076211e-01  
                   4.017200000e-09  4.485583756e-01  4.018400000e-09  
                   3.474184761e-01  4.019600000e-09  2.543937690e-01  
                   4.020800000e-09  1.678834640e-01  4.022000000e-09  
                   8.660254038e-02  4.023200000e-09  9.519458516e-03  
                   4.024400000e-09  0.000000000e+00  4.025600000e-09  
                   0.000000000e+00  0.000000000e+00  1.200000000e+00  
                   4.000000000e-07  1.200000000e+00  1.876105563e-11  
                   4.015611225e-09  8.945020618e-12    failed         
                   4.013022277e-09  4.019006660e-09  4.022414138e-09  
                     failed           failed         4.010120000e-09  
                   4.019006660e-09  2.851403267e-14  1.766254445e-14  
                   1.085148822e-14  3.189489113e-14  2.973492332e-14  
                   3.617162741e-14  6.000000000e-12  5.984382786e-12  
                   0.000000000e+00  1.000000000e+00  0.000000000e+00  
                  -3.995069483e-08 -1.439546722e-07  2.394080512e-07  
                  -5.550268401e-08    failed           failed         
                     failed           failed           failed         
                     failed           failed           failed         
                   2.400000000e-14  2.500000000e+01 1                 
 12                1.200000000e+01  4.010000000e-09  5.000000000e-12  
                   6.000000000e-12  4.000000000e-14  0.000000000e+00  
                   1.200000000e+00  4.000000000e-09  1.200000000e+00  
                   4.010000000e-09  1.200000000e+00  4.011200000e-09  
                   1.140000000e+00  4.012400000e-09  9.822554283e-01  
                   4.013600000e-09  8.231813069e-01  4.014800000e-09  
                   6.836503920e-01  4.016000000e-09  5.598076211e-01  
                   4.017200000e-09  4.485583756e-01  4.018400000e-09  
                   3.474184761e-01  4.019600000e-09  2.543937690e-01  
                   4.020800000e-09  1.678834640e-01  4.022000000e-09  
                   8.660254038e-02  4.023200000e-09  9.519458516e-03  
                   4.024400000e-09  0.000000000e+00  4.025600000e-09  
                   0.000000000e+00  0.000000000e+00  1.200000000e+00  
                   4.000000000e-07  1.200000000e+00  1.914171299e-11  
                   4.015611237e-09  9.243137509e-12    failed         
                   4.013022273e-09  4.019006646e-09  4.022414138e-09  
                     failed           failed         4.010120000e-09  
                   4.019006646e-09  2.853079946e-14  1.767530959e-14  
                   1.085548987e-14  3.191364593e-14  2.975641344e-14  
                   3.618496624e-14  6.000000000e-12  5.984372032e-12  
                   0.000000000e+00  1.000000000e+00  0.000000000e+00  
                  -3.995069483e-08 -1.439546722e-07  2.394080512e-07  
                  -5.550268401e-08    failed           failed         
                     failed           failed           failed         
                     failed           failed           failed         
                   2.400000000e-14  2.500000000e+01 1                 
 13                1.300000000e+01  4.010000000e-09  5.000000000e-12  
                   6.000000000e-12  4.200000000e-14  0.000000000e+00  
                   1.200000000e+00  4.000000000e-09  1.200000000e+00  
                   4.010000000e-09  1.200000000e+00  4.011200000e-09  
                   1.140000000e+00  4.012400000e-09  9.822554283e-01  
                   4.013600000e-09  8.231813069e-01  4.014800000e-09  
                   6.836503920e-01  4.016000000e-09  5.598076211e-01  
                   4.017200000e-09  4.485583756e-01  4.018400000e-09  
                   3.474184761e-01  4.019600000e-09  2.543937690e-01  
                   4.020800000e-09  1.678834640e-01  4.022000000e-09  
                   8.660254038e-02  4.023200000e-09  9.519458516e-03  
                   4.024400000e-09  0.000000000e+00  4.025600000e-09  
                   0.000000000e+00  0.000000000e+00  1.200000000e+00  
                   4.000000000e-07  1.200000000e+00  1.932883909e-11  
                   4.015611242e-09  9.394515853e-12    failed         
                   4.013022272e-09  4.019006638e-09  4.022414138e-09  
                     failed           failed         4.010120000e-09  
                   4.019006638e-09  2.853840603e-14  1.768108531e-14  
                   1.085732072e-14  3.192215439e-14  2.976613688e-14  
                   3.619106907e-14  6.000000000e-12  5.984366626e-12  
                   0.000000000e+00  1.000000000e+00  0.000000000e+00  
                  -3.995069483e-08 -1.439546722e-07  2.394080512e-07  
                  -5.550268401e-08    failed           failed         
                     failed           failed           failed         
                     failed           failed           failed         
                   2.400000000e-14  2.500000000e+01 1                 
 14                1.400000000e+01  4.010000000e-09  5.000000000e-12  
                   1.200000000e-11  6.000000000e-15  0.000000000e+00  
                   1.200000000e+00  4.000000000e-09  1.200000000e+00  
                   4.010000000e-09  1.200000000e+00  4.012400000e-09  
                   1.140000000e+00  4.014800000e-09  9.822554283e-01  
                   4.017200000e-09  8.231813069e-01  4.019600000e-09  
                   6.836503920e-01  4.022000000e-09  5.598076211e-01  
                   4.024400000e-09  4.485583756e-01  4.026800000e-09  
                   3.474184761e-01  4.029200000e-09  2.543937690e-01  
                   4.031600000e-09  1.678834640e-01  4.034000000e-09  
                   8.660254038e-02  4.036400000e-09  9.519458516e-03  
                   4.038800000e-09  0.000000000e+00  4.041200000e-09  
                   0.000000000e+00  0.000000000e+00  1.200000000e+00  
                   4.000000000e-07  1.200000000e+00  1.791893279e-11  
                   4.021209869e-09  7.253306912e-12    failed         
                   4.016041013e-09  4.028027223e-09  4.034828276e-09  
                     failed           failed         4.010240000e-09  
                   4.028027223e-09  2.986182355e-14  1.839043224e-14  
                   1.147139130e-14  3.340248719e-14  3.096032364e-14  
                   3.823797100e-14  1.200000000e-11  1.198621020e-11  
                   0.000000000e+00  1.000000000e+00  0.000000000e+00  
                  -3.995069484e-08 -1.439546723e-07  2.394080512e-07  
                  -5.550268401e-08    failed           failed         
                     failed           failed           failed         
                     failed           failed           failed         
                   2.400000000e-14  2.500000000e+01 1                 
 15                1.500000000e+01  4.010000000e-09  5.000000000e-12  
                   1.200000000e-11  9.000000000e-15  0.000000000e+00  
                   1.200000000e+00  4.000000000e-09  1.200000000e+00  
                   4.010000000e-09  1.200000000e+00  4.012400000e-09  
                   1.140000000e+00  4.014800000e-09  9.822554283e-01  
                   4.017200000e-09  8.231813069e-01  4.019600000e-09  
                   6.836503920e-01  4.022000000e-09  5.598076211e-01  
                   4.024400000e-09  4.485583756e-01  4.026800000e-09  
                   3.474184761e-01  4.029200000e-09  2.543937690e-01  
                   4.031600000e-09  1.678834640e-01  4.034000000e-09  
                   8.660254038e-02  4.036400000e-09  9.519458516e-03  
                   4.038800000e-09  0.000000000e+00  4.041200000e-09  
                   0.000000000e+00  0.000000000e+00  1.200000000e+00  
                   4.000000000e-07  1.200000000e+00  1.833078595e-11  
                   4.021209430e-09  7.387468432e-12    failed         
                   4.016041013e-09  4.028027264e-09  4.034828276e-09  
                     failed           failed         4.010240000e-09  
                   4.028027264e-09  2.989678715e-14  1.842255865e-14  
                   1.147422850e-14  3.344159637e-14  3.101440850e-14  
                   3.824742834e-14  1.200000000e-11  1.198625134e-11  
                   0.000000000e+00  1.000000000e+00  0.000000000e+00  
                  -3.995069484e-08 -1.439546723e-07  2.394080512e-07  
                  -5.550268401e-08    failed           failed         
                     failed           failed           failed         
                     failed           failed           failed         
                   2.400000000e-14  2.500000000e+01 1                 
 16                1.600000000e+01  4.010000000e-09  5.000000000e-12  
                   1.200000000e-11  1.200000000e-14  0.000000000e+00  
                   1.200000000e+00  4.000000000e-09  1.200000000e+00  
                   4.010000000e-09  1.200000000e+00  4.012400000e-09  
                   1.140000000e+00  4.014800000e-09  9.822554283e-01  
                   4.017200000e-09  8.231813069e-01  4.019600000e-09  
                   6.836503920e-01  4.022000000e-09  5.598076211e-01  
                   4.024400000e-09  4.485583756e-01  4.026800000e-09  
                   3.474184761e-01  4.029200000e-09  2.543937690e-01  
                   4.031600000e-09  1.678834640e-01  4.034000000e-09  
                   8.660254038e-02  4.036400000e-09  9.519458516e-03  
                   4.038800000e-09  0.000000000e+00  4.041200000e-09  
                   0.000000000e+00  0.000000000e+00  1.200000000e+00  
                   4.000000000e-07  1.200000000e+00  1.872231485e-11  
                   4.021209151e-09  7.580979081e-12    failed         
                   4.016041013e-09  4.028027296e-09  4.034828276e-09  
                     failed           failed         4.010240000e-09  
                   4.028027296e-09  2.992623073e-14  1.844930365e-14  
                   1.147692708e-14  3.347453102e-14  3.105943376e-14  
                   3.825642360e-14  1.200000000e-11  1.198628279e-11  
                   0.000000000e+00  1.000000000e+00  0.000000000e+00  
                  -3.995069484e-08 -1.439546722e-07  2.394080512e-07  
                  -5.550268401e-08    failed           failed         
                     failed           failed           failed         
                     failed           failed           failed         
                   2.400000000e-14  2.500000000e+01 1                 
 17                1.700000000e+01  4.010000000e-09  5.000000000e-12  
                   1.200000000e-11  1.500000000e-14  0.000000000e+00  
                   1.200000000e+00  4.000000000e-09  1.200000000e+00  
                   4.010000000e-09  1.200000000e+00  4.012400000e-09  
                   1.140000000e+00  4.014800000e-09  9.822554283e-01  
                   4.017200000e-09  8.231813069e-01  4.019600000e-09  
                   6.836503920e-01  4.022000000e-09  5.598076211e-01  
                   4.024400000e-09  4.485583756e-01  4.026800000e-09  
                   3.474184761e-01  4.029200000e-09  2.543937690e-01  
                   4.031600000e-09  1.678834640e-01  4.034000000e-09  
                   8.660254038e-02  4.036400000e-09  9.519458516e-03  
                   4.038800000e-09  0.000000000e+00  4.041200000e-09  
                   0.000000000e+00  0.000000000e+00  1.200000000e+00  
                   4.000000000e-07  1.200000000e+00  1.909720898e-11  
                   4.021208976e-09  7.757596631e-12    failed         
                   4.016041013e-09  4.028027327e-09  4.034828276e-09  
                     failed           failed         4.010240000e-09  
                   4.028027327e-09  2.995127897e-14  1.847190277e-14  
                   1.147937620e-14  3.350254919e-14  3.109747942e-14  
                   3.826458734e-14  1.200000000e-11  1.198631455e-11  
                   0.000000000e+00  1.000000000e+00  0.000000000e+00  
                  -3.995069484e-08 -1.439546722e-07  2.394080512e-07  
                  -5.550268401e-08    failed           failed         
                     failed           failed           failed         
                     failed           failed           failed         
                   2.400000000e-14  2.500000000e+01 1                 
 18                1.800000000e+01  4.010000000e-09  5.000000000e-12  
                   1.200000000e-11  1.800000000e-14  0.000000000e+00  
                   1.200000000e+00  4.000000000e-09  1.200000000e+00  
                   4.010000000e-09  1.200000000e+00  4.012400000e-09  
                   1.140000000e+00  4.014800000e-09  9.822554283e-01  
                   4.017200000e-09  8.231813069e-01  4.019600000e-09  
                   6.836503920e-01  4.022000000e-09  5.598076211e-01  
                   4.024400000e-09  4.485583756e-01  4.026800000e-09  
                   3.474184761e-01  4.029200000e-09  2.543937690e-01  
                   4.031600000e-09  1.678834640e-01  4.034000000e-09  
                   8.660254038e-02  4.036400000e-09  9.519458516e-03  
                   4.038800000e-09  0.000000000e+00  4.041200000e-09  
                   0.000000000e+00  0.000000000e+00  1.200000000e+00  
                   4.000000000e-07  1.200000000e+00  1.945060851e-11  
                   4.021208869e-09  7.923870194e-12    failed         
                   4.016041013e-09  4.028027355e-09  4.034828276e-09  
                     failed           failed         4.010240000e-09  
                   4.028027355e-09  2.997284284e-14  1.849124302e-14  
                   1.148159983e-14  3.352666984e-14  3.113003875e-14  
                   3.827199942e-14  1.200000000e-11  1.198634198e-11  
                   0.000000000e+00  1.000000000e+00  0.000000000e+00  
                  -3.995069484e-08 -1.439546722e-07  2.394080512e-07  
                  -5.550268401e-08    failed           failed         
                     failed           failed           failed         
                     failed           failed           failed         
                   2.400000000e-14  2.500000000e+01 1                 
 19                1.900000000e+01  4.010000000e-09  5.000000000e-12  
                   1.200000000e-11  2.100000000e-14  0.000000000e+00  
                   1.200000000e+00  4.000000000e-09  1.200000000e+00  
                   4.010000000e-09  1.200000000e+00  4.012400000e-09  
                   1.140000000e+00  4.014800000e-09  9.822554283e-01  
                   4.017200000e-09  8.231813069e-01  4.019600000e-09  
                   6.836503920e-01  4.022000000e-09  5.598076211e-01  
                   4.024400000e-09  4.485583756e-01  4.026800000e-09  
                   3.474184761e-01  4.029200000e-09  2.543937690e-01  
                   4.031600000e-09  1.678834640e-01  4.034000000e-09  
                   8.660254038e-02  4.036400000e-09  9.519458516e-03  
                   4.038800000e-09  0.000000000e+00  4.041200000e-09  
                   0.000000000e+00  0.000000000e+00  1.200000000e+00  
                   4.000000000e-07  1.200000000e+00  1.979588215e-11  
                   4.021208807e-09  8.122078974e-12    failed         
                   4.016041013e-09  4.028027378e-09  4.034828276e-09  
                     failed           failed         4.010240000e-09  
                   4.028027378e-09  2.999157248e-14  1.850797694e-14  
                   1.148359554e-14  3.354762022e-14  3.115821033e-14  
                   3.827865180e-14  1.200000000e-11  1.198636528e-11  
                   0.000000000e+00  1.000000000e+00  0.000000000e+00  
                  -3.995069484e-08 -1.439546722e-07  2.394080512e-07  
                  -5.550268401e-08    failed           failed         
                     failed           failed           failed         
                     failed           failed           failed         
                   2.400000000e-14  2.500000000e+01 1                 
 20                2.000000000e+01  4.010000000e-09  5.000000000e-12  
                   1.200000000e-11  2.400000000e-14  0.000000000e+00  
                   1.200000000e+00  4.000000000e-09  1.200000000e+00  
                   4.010000000e-09  1.200000000e+00  4.012400000e-09  
                   1.140000000e+00  4.014800000e-09  9.822554283e-01  
                   4.017200000e-09  8.231813069e-01  4.019600000e-09  
                   6.836503920e-01  4.022000000e-09  5.598076211e-01  
                   4.024400000e-09  4.485583756e-01  4.026800000e-09  
                   3.474184761e-01  4.029200000e-09  2.543937690e-01  
                   4.031600000e-09  1.678834640e-01  4.034000000e-09  
                   8.660254038e-02  4.036400000e-09  9.519458516e-03  
                   4.038800000e-09  0.000000000e+00  4.041200000e-09  
                   0.000000000e+00  0.000000000e+00  1.200000000e+00  
                   4.000000000e-07  1.200000000e+00  2.013038074e-11  
                   4.021208775e-09  8.336444417e-12    failed         
                   4.016041013e-09  4.028027399e-09  4.034828276e-09  
                     failed           failed         4.010240000e-09  
                   4.028027399e-09  3.000802073e-14  1.852259486e-14  
                   1.148542587e-14  3.356601871e-14  3.118281962e-14  
                   3.828475290e-14  1.200000000e-11  1.198638647e-11  
                   0.000000000e+00  1.000000000e+00  0.000000000e+00  
                  -3.995069484e-08 -1.439546722e-07  2.394080512e-07  
                  -5.550268401e-08    failed           failed         
                     failed           failed           failed         
                     failed           failed           failed         
                   2.400000000e-14  2.500000000e+01 1                 
 21                2.100000000e+01  4.010000000e-09  5.000000000e-12  
                   1.200000000e-11  2.700000000e-14  0.000000000e+00  
                   1.200000000e+00  4.000000000e-09  1.200000000e+00  
                   4.010000000e-09  1.200000000e+00  4.012400000e-09  
                   1.140000000e+00  4.014800000e-09  9.822554283e-01  
                   4.017200000e-09  8.231813069e-01  4.019600000e-09  
                   6.836503920e-01  4.022000000e-09  5.598076211e-01  
                   4.024400000e-09  4.485583756e-01  4.026800000e-09  
                   3.474184761e-01  4.029200000e-09  2.543937690e-01  
                   4.031600000e-09  1.678834640e-01  4.034000000e-09  
                   8.660254038e-02  4.036400000e-09  9.519458516e-03  
                   4.038800000e-09  0.000000000e+00  4.041200000e-09  
                   0.000000000e+00  0.000000000e+00  1.200000000e+00  
                   4.000000000e-07  1.200000000e+00  2.045080165e-11  
                   4.021208763e-09  8.521860167e-12    failed         
                   4.016041013e-09  4.028027419e-09  4.034828276e-09  
                     failed           failed         4.010240000e-09  
                   4.028027419e-09  3.002257699e-14  1.853547205e-14  
                   1.148710494e-14  3.358230089e-14  3.120449840e-14  
                   3.829034982e-14  1.200000000e-11  1.198640574e-11  
                   0.000000000e+00  1.000000000e+00  0.000000000e+00  
                  -3.995069484e-08 -1.439546722e-07  2.394080512e-07  
                  -5.550268401e-08    failed           failed         
                     failed           failed           failed         
                     failed           failed           failed         
                   2.400000000e-14  2.500000000e+01 1                 
 22                2.200000000e+01  4.010000000e-09  5.000000000e-12  
                   1.200000000e-11  3.000000000e-14  0.000000000e+00  
                   1.200000000e+00  4.000000000e-09  1.200000000e+00  
                   4.010000000e-09  1.200000000e+00  4.012400000e-09  
                   1.140000000e+00  4.014800000e-09  9.822554283e-01  
                   4.017200000e-09  8.231813069e-01  4.019600000e-09  
                   6.836503920e-01  4.022000000e-09  5.598076211e-01  
                   4.024400000e-09  4.485583756e-01  4.026800000e-09  
                   3.474184761e-01  4.029200000e-09  2.543937690e-01  
                   4.031600000e-09  1.678834640e-01  4.034000000e-09  
                   8.660254038e-02  4.036400000e-09  9.519458516e-03  
                   4.038800000e-09  0.000000000e+00  4.041200000e-09  
                   0.000000000e+00  0.000000000e+00  1.200000000e+00  
                   4.000000000e-07  1.200000000e+00  2.076244860e-11  
                   4.021208766e-09  8.741585188e-12    failed         
                   4.016041013e-09  4.028027436e-09  4.034828276e-09  
                     failed           failed         4.010240000e-09  
                   4.028027436e-09  3.003554761e-14  1.854690045e-14  
                   1.148864716e-14  3.359680940e-14  3.122373812e-14  
                   3.829549054e-14  1.200000000e-11  1.198642329e-11  
                   0.000000000e+00  1.000000000e+00  0.000000000e+00  
                  -3.995069483e-08 -1.439546722e-07  2.394080512e-07  
                  -5.550268401e-08    failed           failed         
                     failed           failed           failed         
                     failed           failed           failed         
                   2.400000000e-14  2.500000000e+01 1                 
 23                2.300000000e+01  4.010000000e-09  5.000000000e-12  
                   1.200000000e-11  3.300000000e-14  0.000000000e+00  
                   1.200000000e+00  4.000000000e-09  1.200000000e+00  
                   4.010000000e-09  1.200000000e+00  4.012400000e-09  
                   1.140000000e+00  4.014800000e-09  9.822554283e-01  
                   4.017200000e-09  8.231813069e-01  4.019600000e-09  
                   6.836503920e-01  4.022000000e-09  5.598076211e-01  
                   4.024400000e-09  4.485583756e-01  4.026800000e-09  
                   3.474184761e-01  4.029200000e-09  2.543937690e-01  
                   4.031600000e-09  1.678834640e-01  4.034000000e-09  
                   8.660254038e-02  4.036400000e-09  9.519458516e-03  
                   4.038800000e-09  0.000000000e+00  4.041200000e-09  
                   0.000000000e+00  0.000000000e+00  1.200000000e+00  
                   4.000000000e-07  1.200000000e+00  2.106558236e-11  
                   4.021208675e-09  8.947234160e-12    failed         
                   4.016041013e-09  4.028027448e-09  4.034828276e-09  
                     failed           failed         4.010240000e-09  
                   4.028027448e-09  3.004709025e-14  1.855698101e-14  
                   1.149010923e-14  3.360972063e-14  3.124070878e-14  
                   3.830036410e-14  1.200000000e-11  1.198643529e-11  
                   0.000000000e+00  1.000000000e+00  0.000000000e+00  
                  -3.995069483e-08 -1.439546722e-07  2.394080512e-07  
                  -5.550268401e-08    failed           failed         
                     failed           failed           failed         
                     failed           failed           failed         
                   2.400000000e-14  2.500000000e+01 1                 
 24                2.400000000e+01  4.010000000e-09  5.000000000e-12  
                   1.200000000e-11  3.600000000e-14  0.000000000e+00  
                   1.200000000e+00  4.000000000e-09  1.200000000e+00  
                   4.010000000e-09  1.200000000e+00  4.012400000e-09  
                   1.140000000e+00  4.014800000e-09  9.822554283e-01  
                   4.017200000e-09  8.231813069e-01  4.019600000e-09  
                   6.836503920e-01  4.022000000e-09  5.598076211e-01  
                   4.024400000e-09  4.485583756e-01  4.026800000e-09  
                   3.474184761e-01  4.029200000e-09  2.543937690e-01  
                   4.031600000e-09  1.678834640e-01  4.034000000e-09  
                   8.660254038e-02  4.036400000e-09  9.519458516e-03  
                   4.038800000e-09  0.000000000e+00  4.041200000e-09  
                   0.000000000e+00  0.000000000e+00  1.200000000e+00  
                   4.000000000e-07  1.200000000e+00  2.136412925e-11  
                   4.021208480e-09  9.160696836e-12    failed         
                   4.016041013e-09  4.028027455e-09  4.034828276e-09  
                     failed           failed         4.010240000e-09  
                   4.028027455e-09  3.005739742e-14  1.856588808e-14  
                   1.149150935e-14  3.362124991e-14  3.125570383e-14  
                   3.830503115e-14  1.200000000e-11  1.198644170e-11  
                   0.000000000e+00  1.000000000e+00  0.000000000e+00  
                  -3.995069483e-08 -1.439546722e-07  2.394080512e-07  
                  -5.550268401e-08    failed           failed         
                     failed           failed           failed         
                     failed           failed           failed         
                   2.400000000e-14  2.500000000e+01 1                 
 25                2.500000000e+01  4.010000000e-09  5.000000000e-12  
                   1.200000000e-11  4.000000000e-14  0.000000000e+00  
                   1.200000000e+00  4.000000000e-09  1.200000000e+00  
                   4.010000000e-09  1.200000000e+00  4.012400000e-09  
                   1.140000000e+00  4.014800000e-09  9.822554283e-01  
                   4.017200000e-09  8.231813069e-01  4.019600000e-09  
                   6.836503920e-01  4.022000000e-09  5.598076211e-01  
                   4.024400000e-09  4.485583756e-01  4.026800000e-09  
                   3.474184761e-01  4.029200000e-09  2.543937690e-01  
                   4.031600000e-09  1.678834640e-01  4.034000000e-09  
                   8.660254038e-02  4.036400000e-09  9.519458516e-03  
                   4.038800000e-09  0.000000000e+00  4.041200000e-09  
                   0.000000000e+00  0.000000000e+00  1.200000000e+00  
                   4.000000000e-07  1.200000000e+00  2.175603497e-11  
                   4.021208270e-09  9.459382431e-12    failed         
                   4.016041013e-09  4.028027463e-09  4.034828276e-09  
                     failed           failed         4.010240000e-09  
                   4.028027463e-09  3.006966983e-14  1.857646113e-14  
                   1.149320870e-14  3.363497744e-14  3.127350358e-14  
                   3.831069568e-14  1.200000000e-11  1.198645018e-11  
                   0.000000000e+00  1.000000000e+00  0.000000000e+00  
                  -3.995069483e-08 -1.439546722e-07  2.394080512e-07  
                  -5.550268401e-08    failed           failed         
                     failed           failed           failed         
                     failed           failed           failed         
                   2.400000000e-14  2.500000000e+01 1                 
 26                2.600000000e+01  4.010000000e-09  5.000000000e-12  
                   1.200000000e-11  4.200000000e-14  0.000000000e+00  
                   1.200000000e+00  4.000000000e-09  1.200000000e+00  
                   4.010000000e-09  1.200000000e+00  4.012400000e-09  
                   1.140000000e+00  4.014800000e-09  9.822554283e-01  
                   4.017200000e-09  8.231813069e-01  4.019600000e-09  
                   6.836503920e-01  4.022000000e-09  5.598076211e-01  
                   4.024400000e-09  4.485583756e-01  4.026800000e-09  
                   3.474184761e-01  4.029200000e-09  2.543937690e-01  
                   4.031600000e-09  1.678834640e-01  4.034000000e-09  
                   8.660254038e-02  4.036400000e-09  9.519458516e-03  
                   4.038800000e-09  0.000000000e+00  4.041200000e-09  
                   0.000000000e+00  0.000000000e+00  1.200000000e+00  
                   4.000000000e-07  1.200000000e+00  2.194663738e-11  
                   4.021208181e-09  9.619710770e-12    failed         
                   4.016041013e-09  4.028027467e-09  4.034828276e-09  
                     failed           failed         4.010240000e-09  
                   4.028027467e-09  3.007525924e-14  1.858126525e-14  
                   1.149399398e-14  3.364122957e-14  3.128159133e-14  
                   3.831331328e-14  1.200000000e-11  1.198645432e-11  
                   0.000000000e+00  1.000000000e+00  0.000000000e+00  
                  -3.995069483e-08 -1.439546722e-07  2.394080512e-07  
                  -5.550268401e-08    failed           failed         
                     failed           failed           failed         
                     failed           failed           failed         
                   2.400000000e-14  2.500000000e+01 1                 
 27                2.700000000e+01  4.010000000e-09  5.000000000e-12  
                   2.400000000e-11  6.000000000e-15  0.000000000e+00  
                   1.200000000e+00  4.000000000e-09  1.200000000e+00  
                   4.010000000e-09  1.200000000e+00  4.014800000e-09  
                   1.140000000e+00  4.019600000e-09  9.822554283e-01  
                   4.024400000e-09  8.231813069e-01  4.029200000e-09  
                   6.836503920e-01  4.034000000e-09  5.598076211e-01  
                   4.038800000e-09  4.485583756e-01  4.043600000e-09  
                   3.474184761e-01  4.048400000e-09  2.543937690e-01  
                   4.053200000e-09  1.678834640e-01  4.058000000e-09  
                   8.660254038e-02  4.062800000e-09  9.519458516e-03  
                   4.067600000e-09  0.000000000e+00  4.072400000e-09  
                   0.000000000e+00  0.000000000e+00  1.200000000e+00  
                   4.000000000e-07  1.200000000e+00  2.192534346e-11  
                   4.032442191e-09  8.085762255e-12    failed         
                   4.022082026e-09  4.046046755e-09  4.059656553e-09  
                     failed           failed         4.010480000e-09  
                   4.046046755e-09  3.172627929e-14  1.892083307e-14  
                   1.280544622e-14  3.548800815e-14  3.185325432e-14  
                   4.268482074e-14  2.400000000e-11  2.396472950e-11  
                   0.000000000e+00  1.000000000e+00  0.000000000e+00  
                  -3.995069484e-08 -1.439546723e-07  2.394080512e-07  
                  -5.550268401e-08    failed           failed         
                     failed           failed           failed         
                     failed           failed           failed         
                   2.400000000e-14  2.500000000e+01 1                 
 28                2.800000000e+01  4.010000000e-09  5.000000000e-12  
                   2.400000000e-11  9.000000000e-15  0.000000000e+00  
                   1.200000000e+00  4.000000000e-09  1.200000000e+00  
                   4.010000000e-09  1.200000000e+00  4.014800000e-09  
                   1.140000000e+00  4.019600000e-09  9.822554283e-01  
                   4.024400000e-09  8.231813069e-01  4.029200000e-09  
                   6.836503920e-01  4.034000000e-09  5.598076211e-01  
                   4.038800000e-09  4.485583756e-01  4.043600000e-09  
                   3.474184761e-01  4.048400000e-09  2.543937690e-01  
                   4.053200000e-09  1.678834640e-01  4.058000000e-09  
                   8.660254038e-02  4.062800000e-09  9.519458516e-03  
                   4.067600000e-09  0.000000000e+00  4.072400000e-09  
                   0.000000000e+00  0.000000000e+00  1.200000000e+00  
                   4.000000000e-07  1.200000000e+00  2.236709526e-11  
                   4.032443087e-09  8.217103848e-12    failed         
                   4.022082026e-09  4.046046755e-09  4.059656553e-09  
                     failed           failed         4.010480000e-09  
                   4.046046755e-09  3.175886201e-14  1.894909067e-14  
                   1.280977134e-14  3.552445415e-14  3.190082605e-14  
                   4.269923779e-14  2.400000000e-11  2.396472950e-11  
                   0.000000000e+00  1.000000000e+00  0.000000000e+00  
                  -3.995069484e-08 -1.439546723e-07  2.394080512e-07  
                  -5.550268401e-08    failed           failed         
                     failed           failed           failed         
                     failed           failed           failed         
                   2.400000000e-14  2.500000000e+01 1                 
 29                2.900000000e+01  4.010000000e-09  5.000000000e-12  
                   2.400000000e-11  1.200000000e-14  0.000000000e+00  
                   1.200000000e+00  4.000000000e-09  1.200000000e+00  
                   4.010000000e-09  1.200000000e+00  4.014800000e-09  
                   1.140000000e+00  4.019600000e-09  9.822554283e-01  
                   4.024400000e-09  8.231813069e-01  4.029200000e-09  
                   6.836503920e-01  4.034000000e-09  5.598076211e-01  
                   4.038800000e-09  4.485583756e-01  4.043600000e-09  
                   3.474184761e-01  4.048400000e-09  2.543937690e-01  
                   4.053200000e-09  1.678834640e-01  4.058000000e-09  
                   8.660254038e-02  4.062800000e-09  9.519458516e-03  
                   4.067600000e-09  0.000000000e+00  4.072400000e-09  
                   0.000000000e+00  0.000000000e+00  1.200000000e+00  
                   4.000000000e-07  1.200000000e+00  2.278906969e-11  
                   4.032442819e-09  8.427027844e-12    failed         
                   4.022082026e-09  4.046047085e-09  4.059656553e-09  
                     failed           failed         4.010480000e-09  
                   4.046047085e-09  3.178525587e-14  1.897245277e-14  
                   1.281280311e-14  3.555397749e-14  3.194015617e-14  
                   4.270934369e-14  2.400000000e-11  2.396505937e-11  
                   0.000000000e+00  1.000000000e+00  0.000000000e+00  
                  -3.995069484e-08 -1.439546722e-07  2.394080512e-07  
                  -5.550268401e-08    failed           failed         
                     failed           failed           failed         
                     failed           failed           failed         
                   2.400000000e-14  2.500000000e+01 1                 
 30                3.000000000e+01  4.010000000e-09  5.000000000e-12  
                   2.400000000e-11  1.500000000e-14  0.000000000e+00  
                   1.200000000e+00  4.000000000e-09  1.200000000e+00  
                   4.010000000e-09  1.200000000e+00  4.014800000e-09  
                   1.140000000e+00  4.019600000e-09  9.822554283e-01  
                   4.024400000e-09  8.231813069e-01  4.029200000e-09  
                   6.836503920e-01  4.034000000e-09  5.598076211e-01  
                   4.038800000e-09  4.485583756e-01  4.043600000e-09  
                   3.474184761e-01  4.048400000e-09  2.543937690e-01  
                   4.053200000e-09  1.678834640e-01  4.058000000e-09  
                   8.660254038e-02  4.062800000e-09  9.519458516e-03  
                   4.067600000e-09  0.000000000e+00  4.072400000e-09  
                   0.000000000e+00  0.000000000e+00  1.200000000e+00  
                   4.000000000e-07  1.200000000e+00  2.320348506e-11  
                   4.032442191e-09  8.624015923e-12    failed         
                   4.022082026e-09  4.046046755e-09  4.059656553e-09  
                     failed           failed         4.010480000e-09  
                   4.046046755e-09  3.180636132e-14  1.899235457e-14  
                   1.281400675e-14  3.557758537e-14  3.197366089e-14  
                   4.271335584e-14  2.400000000e-11  2.396472950e-11  
                   0.000000000e+00  1.000000000e+00  0.000000000e+00  
                  -3.995069484e-08 -1.439546722e-07  2.394080512e-07  
                  -5.550268401e-08    failed           failed         
                     failed           failed           failed         
                     failed           failed           failed         
                   2.400000000e-14  2.500000000e+01 1                 
 31                3.100000000e+01  4.010000000e-09  5.000000000e-12  
                   2.400000000e-11  1.800000000e-14  0.000000000e+00  
                   1.200000000e+00  4.000000000e-09  1.200000000e+00  
                   4.010000000e-09  1.200000000e+00  4.014800000e-09  
                   1.140000000e+00  4.019600000e-09  9.822554283e-01  
                   4.024400000e-09  8.231813069e-01  4.029200000e-09  
                   6.836503920e-01  4.034000000e-09  5.598076211e-01  
                   4.038800000e-09  4.485583756e-01  4.043600000e-09  
                   3.474184761e-01  4.048400000e-09  2.543937690e-01  
                   4.053200000e-09  1.678834640e-01  4.058000000e-09  
                   8.660254038e-02  4.062800000e-09  9.519458516e-03  
                   4.067600000e-09  0.000000000e+00  4.072400000e-09  
                   0.000000000e+00  0.000000000e+00  1.200000000e+00  
                   4.000000000e-07  1.200000000e+00  2.361262040e-11  
                   4.032444515e-09  8.800251469e-12    failed         
                   4.022082026e-09  4.046046755e-09  4.059656553e-09  
                     failed           failed         4.010480000e-09  
                   4.046046755e-09  3.182462014e-14  1.901656645e-14  
                   1.280805369e-14  3.559800910e-14  3.201442163e-14  
                   4.269351230e-14  2.400000000e-11  2.396472950e-11  
                   0.000000000e+00  1.000000000e+00  0.000000000e+00  
                  -3.995069484e-08 -1.439546722e-07  2.394080512e-07  
                  -5.550268401e-08    failed           failed         
                     failed           failed           failed         
                     failed           failed           failed         
                   2.400000000e-14  2.500000000e+01 1                 
 32                3.200000000e+01  4.010000000e-09  5.000000000e-12  
                   2.400000000e-11  2.100000000e-14  0.000000000e+00  
                   1.200000000e+00  4.000000000e-09  1.200000000e+00  
                   4.010000000e-09  1.200000000e+00  4.014800000e-09  
                   1.140000000e+00  4.019600000e-09  9.822554283e-01  
                   4.024400000e-09  8.231813069e-01  4.029200000e-09  
                   6.836503920e-01  4.034000000e-09  5.598076211e-01  
                   4.038800000e-09  4.485583756e-01  4.043600000e-09  
                   3.474184761e-01  4.048400000e-09  2.543937690e-01  
                   4.053200000e-09  1.678834640e-01  4.058000000e-09  
                   8.660254038e-02  4.062800000e-09  9.519458516e-03  
                   4.067600000e-09  0.000000000e+00  4.072400000e-09  
                   0.000000000e+00  0.000000000e+00  1.200000000e+00  
                   4.000000000e-07  1.200000000e+00  2.399222021e-11  
                   4.032445757e-09  8.991431449e-12    failed         
                   4.022082026e-09  4.046046755e-09  4.059656553e-09  
                     failed           failed         4.010480000e-09  
                   4.046046755e-09  3.184012365e-14  1.903142094e-14  
                   1.280870271e-14  3.561535084e-14  3.203942919e-14  
                   4.269567569e-14  2.400000000e-11  2.396472950e-11  
                   0.000000000e+00  1.000000000e+00  0.000000000e+00  
                  -3.995069484e-08 -1.439546722e-07  2.394080512e-07  
                  -5.550268401e-08    failed           failed         
                     failed           failed           failed         
                     failed           failed           failed         
                   2.400000000e-14  2.500000000e+01 1                 
 33                3.300000000e+01  4.010000000e-09  5.000000000e-12  
                   2.400000000e-11  2.400000000e-14  0.000000000e+00  
                   1.200000000e+00  4.000000000e-09  1.200000000e+00  
                   4.010000000e-09  1.200000000e+00  4.014800000e-09  
                   1.140000000e+00  4.019600000e-09  9.822554283e-01  
                   4.024400000e-09  8.231813069e-01  4.029200000e-09  
                   6.836503920e-01  4.034000000e-09  5.598076211e-01  
                   4.038800000e-09  4.485583756e-01  4.043600000e-09  
                   3.474184761e-01  4.048400000e-09  2.543937690e-01  
                   4.053200000e-09  1.678834640e-01  4.058000000e-09  
                   8.660254038e-02  4.062800000e-09  9.519458516e-03  
                   4.067600000e-09  0.000000000e+00  4.072400000e-09  
                   0.000000000e+00  0.000000000e+00  1.200000000e+00  
                   4.000000000e-07  1.200000000e+00  2.435472092e-11  
                   4.032446843e-09  9.200903882e-12    failed         
                   4.022082026e-09  4.046046755e-09  4.059656553e-09  
                     failed           failed         4.010480000e-09  
                   4.046046755e-09  3.185383081e-14  1.904438776e-14  
                   1.280944305e-14  3.563068324e-14  3.206125886e-14  
                   4.269814351e-14  2.400000000e-11  2.396472950e-11  
                   0.000000000e+00  1.000000000e+00  0.000000000e+00  
                  -3.995069484e-08 -1.439546722e-07  2.394080512e-07  
                  -5.550268401e-08    failed           failed         
                     failed           failed           failed         
                     failed           failed           failed         
                   2.400000000e-14  2.500000000e+01 1                 
 34                3.400000000e+01  4.010000000e-09  5.000000000e-12  
                   2.400000000e-11  2.700000000e-14  0.000000000e+00  
                   1.200000000e+00  4.000000000e-09  1.200000000e+00  
                   4.010000000e-09  1.200000000e+00  4.014800000e-09  
                   1.140000000e+00  4.019600000e-09  9.822554283e-01  
                   4.024400000e-09  8.231813069e-01  4.029200000e-09  
                   6.836503920e-01  4.034000000e-09  5.598076211e-01  
                   4.038800000e-09  4.485583756e-01  4.043600000e-09  
                   3.474184761e-01  4.048400000e-09  2.543937690e-01  
                   4.053200000e-09  1.678834640e-01  4.058000000e-09  
                   8.660254038e-02  4.062800000e-09  9.519458516e-03  
                   4.067600000e-09  0.000000000e+00  4.072400000e-09  
                   0.000000000e+00  0.000000000e+00  1.200000000e+00  
                   4.000000000e-07  1.200000000e+00  2.470130166e-11  
                   4.032447792e-09  9.409275148e-12    failed         
                   4.022082026e-09  4.046046755e-09  4.059656553e-09  
                     failed           failed         4.010480000e-09  
                   4.046046755e-09  3.186604437e-14  1.905580203e-14  
                   1.281024234e-14  3.564434493e-14  3.208047480e-14  
                   4.270080779e-14  2.400000000e-11  2.396472950e-11  
                   0.000000000e+00  1.000000000e+00  0.000000000e+00  
                  -3.995069484e-08 -1.439546722e-07  2.394080512e-07  
                  -5.550268401e-08    failed           failed         
                     failed           failed           failed         
                     failed           failed           failed         
                   2.400000000e-14  2.500000000e+01 1                 
 35                3.500000000e+01  4.010000000e-09  5.000000000e-12  
                   2.400000000e-11  3.000000000e-14  0.000000000e+00  
                   1.200000000e+00  4.000000000e-09  1.200000000e+00  
                   4.010000000e-09  1.200000000e+00  4.014800000e-09  
                   1.140000000e+00  4.019600000e-09  9.822554283e-01  
                   4.024400000e-09  8.231813069e-01  4.029200000e-09  
                   6.836503920e-01  4.034000000e-09  5.598076211e-01  
                   4.038800000e-09  4.485583756e-01  4.043600000e-09  
                   3.474184761e-01  4.048400000e-09  2.543937690e-01  
                   4.053200000e-09  1.678834640e-01  4.058000000e-09  
                   8.660254038e-02  4.062800000e-09  9.519458516e-03  
                   4.067600000e-09  0.000000000e+00  4.072400000e-09  
                   0.000000000e+00  0.000000000e+00  1.200000000e+00  
                   4.000000000e-07  1.200000000e+00  2.503056124e-11  
                   4.032448623e-09  9.622642204e-12    failed         
                   4.022082026e-09  4.046046755e-09  4.059656553e-09  
                     failed           failed         4.010480000e-09  
                   4.046046755e-09  3.187699945e-14  1.906592496e-14  
                   1.281107449e-14  3.565659894e-14  3.209751677e-14  
                   4.270358162e-14  2.400000000e-11  2.396472950e-11  
                   0.000000000e+00  1.000000000e+00  0.000000000e+00  
                  -3.995069483e-08 -1.439546722e-07  2.394080512e-07  
                  -5.550268401e-08    failed           failed         
                     failed           failed           failed         
                     failed           failed           failed         
                   2.400000000e-14  2.500000000e+01 1                 
 36                3.600000000e+01  4.010000000e-09  5.000000000e-12  
                   2.400000000e-11  3.300000000e-14  0.000000000e+00  
                   1.200000000e+00  4.000000000e-09  1.200000000e+00  
                   4.010000000e-09  1.200000000e+00  4.014800000e-09  
                   1.140000000e+00  4.019600000e-09  9.822554283e-01  
                   4.024400000e-09  8.231813069e-01  4.029200000e-09  
                   6.836503920e-01  4.034000000e-09  5.598076211e-01  
                   4.038800000e-09  4.485583756e-01  4.043600000e-09  
                   3.474184761e-01  4.048400000e-09  2.543937690e-01  
                   4.053200000e-09  1.678834640e-01  4.058000000e-09  
                   8.660254038e-02  4.062800000e-09  9.519458516e-03  
                   4.067600000e-09  0.000000000e+00  4.072400000e-09  
                   0.000000000e+00  0.000000000e+00  1.200000000e+00  
                   4.000000000e-07  1.200000000e+00  2.532658138e-11  
                   4.032449354e-09  9.845707372e-12    failed         
                   4.022082026e-09  4.046007953e-09  4.059656553e-09  
                     failed           failed         4.010480000e-09  
                   4.046007953e-09  3.192657898e-14  1.907496286e-14  
                   1.285161612e-14  3.571205702e-14  3.211273209e-14  
                   4.283872039e-14  2.400000000e-11  2.392592710e-11  
                   0.000000000e+00  1.000000000e+00  0.000000000e+00  
                  -3.995069483e-08 -1.439546722e-07  2.394080512e-07  
                  -5.550268401e-08    failed           failed         
                     failed           failed           failed         
                     failed           failed           failed         
                   2.400000000e-14  2.500000000e+01 1                 
 37                3.700000000e+01  4.010000000e-09  5.000000000e-12  
                   2.400000000e-11  3.600000000e-14  0.000000000e+00  
                   1.200000000e+00  4.000000000e-09  1.200000000e+00  
                   4.010000000e-09  1.200000000e+00  4.014800000e-09  
                   1.140000000e+00  4.019600000e-09  9.822554283e-01  
                   4.024400000e-09  8.231813069e-01  4.029200000e-09  
                   6.836503920e-01  4.034000000e-09  5.598076211e-01  
                   4.038800000e-09  4.485583756e-01  4.043600000e-09  
                   3.474184761e-01  4.048400000e-09  2.543937690e-01  
                   4.053200000e-09  1.678834640e-01  4.058000000e-09  
                   8.660254038e-02  4.062800000e-09  9.519458516e-03  
                   4.067600000e-09  0.000000000e+00  4.072400000e-09  
                   0.000000000e+00  0.000000000e+00  1.200000000e+00  
                   4.000000000e-07  1.200000000e+00  2.565250155e-11  
                   4.032449998e-09  1.003584564e-11    failed         
                   4.022082026e-09  4.046009152e-09  4.059656553e-09  
                     failed           failed         4.010480000e-09  
                   4.046009152e-09  3.193860280e-14  1.908308062e-14  
                   1.285552217e-14  3.572550648e-14  3.212639835e-14  
                   4.285174058e-14  2.400000000e-11  2.392712613e-11  
                   0.000000000e+00  1.000000000e+00  0.000000000e+00  
                  -3.995069483e-08 -1.439546722e-07  2.394080512e-07  
                  -5.550268401e-08    failed           failed         
                     failed           failed           failed         
                     failed           failed           failed         
                   2.400000000e-14  2.500000000e+01 1                 
 38                3.800000000e+01  4.010000000e-09  5.000000000e-12  
                   2.400000000e-11  4.000000000e-14  0.000000000e+00  
                   1.200000000e+00  4.000000000e-09  1.200000000e+00  
                   4.010000000e-09  1.200000000e+00  4.014800000e-09  
                   1.140000000e+00  4.019600000e-09  9.822554283e-01  
                   4.024400000e-09  8.231813069e-01  4.029200000e-09  
                   6.836503920e-01  4.034000000e-09  5.598076211e-01  
                   4.038800000e-09  4.485583756e-01  4.043600000e-09  
                   3.474184761e-01  4.048400000e-09  2.543937690e-01  
                   4.053200000e-09  1.678834640e-01  4.058000000e-09  
                   8.660254038e-02  4.062800000e-09  9.519458516e-03  
                   4.067600000e-09  0.000000000e+00  4.072400000e-09  
                   0.000000000e+00  0.000000000e+00  1.200000000e+00  
                   4.000000000e-07  1.200000000e+00  2.606582761e-11  
                   4.032450746e-09  1.031092670e-11    failed         
                   4.022082026e-09  4.046010563e-09  4.059656553e-09  
                     failed           failed         4.010480000e-09  
                   4.046010563e-09  3.195280600e-14  1.909269974e-14  
                   1.286010626e-14  3.574139373e-14  3.214259215e-14  
                   4.286702086e-14  2.400000000e-11  2.392853738e-11  
                   0.000000000e+00  1.000000000e+00  0.000000000e+00  
                  -3.995069483e-08 -1.439546722e-07  2.394080512e-07  
                  -5.550268401e-08    failed           failed         
                     failed           failed           failed         
                     failed           failed           failed         
                   2.400000000e-14  2.500000000e+01 1                 
 39                3.900000000e+01  4.010000000e-09  5.000000000e-12  
                   2.400000000e-11  4.200000000e-14  0.000000000e+00  
                   1.200000000e+00  4.000000000e-09  1.200000000e+00  
                   4.010000000e-09  1.200000000e+00  4.014800000e-09  
                   1.140000000e+00  4.019600000e-09  9.822554283e-01  
                   4.024400000e-09  8.231813069e-01  4.029200000e-09  
                   6.836503920e-01  4.034000000e-09  5.598076211e-01  
                   4.038800000e-09  4.485583756e-01  4.043600000e-09  
                   3.474184761e-01  4.048400000e-09  2.543937690e-01  
                   4.053200000e-09  1.678834640e-01  4.058000000e-09  
                   8.660254038e-02  4.062800000e-09  9.519458516e-03  
                   4.067600000e-09  0.000000000e+00  4.072400000e-09  
                   0.000000000e+00  0.000000000e+00  1.200000000e+00  
                   4.000000000e-07  1.200000000e+00  2.626915006e-11  
                   4.032451078e-09  1.045846758e-11    failed         
                   4.022082026e-09  4.046011201e-09  4.059656553e-09  
                     failed           failed         4.010480000e-09  
                   4.046011201e-09  3.195923699e-14  1.909706439e-14  
                   1.286217259e-14  3.574858723e-14  3.214994005e-14  
                   4.287390864e-14  2.400000000e-11  2.392917491e-11  
                   0.000000000e+00  1.000000000e+00  0.000000000e+00  
                  -3.995069483e-08 -1.439546722e-07  2.394080512e-07  
                  -5.550268401e-08    failed           failed         
                     failed           failed           failed         
                     failed           failed           failed         
                   2.400000000e-14  2.500000000e+01 1                 
 40                4.000000000e+01  4.010000000e-09  5.000000000e-12  
                   5.000000000e-11  6.000000000e-15  0.000000000e+00  
                   1.200000000e+00  4.000000000e-09  1.200000000e+00  
                   4.010000000e-09  1.200000000e+00  4.020000000e-09  
                   1.140000000e+00  4.030000000e-09  9.822554283e-01  
                   4.040000000e-09  8.231813069e-01  4.050000000e-09  
                   6.836503920e-01  4.060000000e-09  5.598076211e-01  
                   4.070000000e-09  4.485583756e-01  4.080000000e-09  
                   3.474184761e-01  4.090000000e-09  2.543937690e-01  
                   4.100000000e-09  1.678834640e-01  4.110000000e-09  
                   8.660254038e-02  4.120000000e-09  9.519458516e-03  
                   4.130000000e-09  0.000000000e+00  4.140000000e-09  
                   0.000000000e+00  0.000000000e+00  1.200000000e+00  
                   4.000000000e-07  1.200000000e+00  2.901599619e-11  
                   4.056808200e-09  9.872471130e-12    failed         
                   4.035253880e-09  4.085097407e-09  4.113451152e-09  
                     failed           failed         4.011000000e-09  
                   4.085097407e-09  3.268534823e-14  1.933931094e-14  
                   1.334603729e-14  3.656079221e-14  3.255776253e-14  
                   4.448679097e-14  5.000000000e-11  4.984352650e-11  
                   0.000000000e+00  1.000000000e+00  0.000000000e+00  
                  -3.995069484e-08 -1.439546723e-07  2.394080512e-07  
                  -5.550268401e-08    failed           failed         
                     failed           failed           failed         
                     failed           failed           failed         
                   2.400000000e-14  2.500000000e+01 1                 
 41                4.100000000e+01  4.010000000e-09  5.000000000e-12  
                   5.000000000e-11  9.000000000e-15  0.000000000e+00  
                   1.200000000e+00  4.000000000e-09  1.200000000e+00  
                   4.010000000e-09  1.200000000e+00  4.020000000e-09  
                   1.140000000e+00  4.030000000e-09  9.822554283e-01  
                   4.040000000e-09  8.231813069e-01  4.050000000e-09  
                   6.836503920e-01  4.060000000e-09  5.598076211e-01  
                   4.070000000e-09  4.485583756e-01  4.080000000e-09  
                   3.474184761e-01  4.090000000e-09  2.543937690e-01  
                   4.100000000e-09  1.678834640e-01  4.110000000e-09  
                   8.660254038e-02  4.120000000e-09  9.519458516e-03  
                   4.130000000e-09  0.000000000e+00  4.140000000e-09  
                   0.000000000e+00  0.000000000e+00  1.200000000e+00  
                   4.000000000e-07  1.200000000e+00  2.952480771e-11  
                   4.056818514e-09  9.999408290e-12    failed         
                   4.035261193e-09  4.085097407e-09  4.113451152e-09  
                     failed           failed         4.011000000e-09  
                   4.085097407e-09  3.284058264e-14  1.936459689e-14  
                   1.347598575e-14  3.673443248e-14  3.260033146e-14  
                   4.491995250e-14  5.000000000e-11  4.983621348e-11  
                   0.000000000e+00  1.000000000e+00  0.000000000e+00  
                  -3.995069484e-08 -1.439546723e-07  2.394080512e-07  
                  -5.550268401e-08    failed           failed         
                     failed           failed           failed         
                     failed           failed           failed         
                   2.400000000e-14  2.500000000e+01 1                 
 42                4.200000000e+01  4.010000000e-09  5.000000000e-12  
                   5.000000000e-11  1.200000000e-14  0.000000000e+00  
                   1.200000000e+00  4.000000000e-09  1.200000000e+00  
                   4.010000000e-09  1.200000000e+00  4.020000000e-09  
                   1.140000000e+00  4.030000000e-09  9.822554283e-01  
                   4.040000000e-09  8.231813069e-01  4.050000000e-09  
                   6.836503920e-01  4.060000000e-09  5.598076211e-01  
                   4.070000000e-09  4.485583756e-01  4.080000000e-09  
                   3.474184761e-01  4.090000000e-09  2.543937690e-01  
                   4.100000000e-09  1.678834640e-01  4.110000000e-09  
                   8.660254038e-02  4.120000000e-09  9.519458516e-03  
                   4.130000000e-09  0.000000000e+00  4.140000000e-09  
                   0.000000000e+00  0.000000000e+00  1.200000000e+00  
                   4.000000000e-07  1.200000000e+00  3.000973277e-11  
                   4.056822263e-09  1.014592350e-11    failed         
                   4.035263828e-09  4.085097407e-09  4.113451152e-09  
                     failed           failed         4.011000000e-09  
                   4.085097407e-09  3.297829696e-14  1.938576382e-14  
                   1.359253314e-14  3.688847535e-14  3.263596603e-14  
                   4.530844379e-14  5.000000000e-11  4.983357863e-11  
                   0.000000000e+00  1.000000000e+00  0.000000000e+00  
                  -3.995069484e-08 -1.439546722e-07  2.394080512e-07  
                  -5.550268401e-08    failed           failed         
                     failed           failed           failed         
                     failed           failed           failed         
                   2.400000000e-14  2.500000000e+01 1                 
 43                4.300000000e+01  4.010000000e-09  5.000000000e-12  
                   5.000000000e-11  1.500000000e-14  0.000000000e+00  
                   1.200000000e+00  4.000000000e-09  1.200000000e+00  
                   4.010000000e-09  1.200000000e+00  4.020000000e-09  
                   1.140000000e+00  4.030000000e-09  9.822554283e-01  
                   4.040000000e-09  8.231813069e-01  4.050000000e-09  
                   6.836503920e-01  4.060000000e-09  5.598076211e-01  
[...]
                   4.490000000e-09  8.231813069e-01  4.650000000e-09  
                   6.836503920e-01  4.810000000e-09  5.598076211e-01  
                   4.970000000e-09  4.485583756e-01  5.130000000e-09  
                   3.474184761e-01  5.290000000e-09  2.543937690e-01  
                   5.450000000e-09  1.678834640e-01  5.610000000e-09  
                   8.660254038e-02  5.770000000e-09  9.519458516e-03  
                   5.930000000e-09  0.000000000e+00  6.090000000e-09  
                   0.000000000e+00  0.000000000e+00  1.200000000e+00  
                   4.000000000e-07  1.200000000e+00  1.564083400e-10  
                   4.758073024e-09  5.651033302e-11    failed         
                   4.412734190e-09  5.211558506e-09  5.665218426e-09  
                     failed           failed         4.026000000e-09  
                   5.211558506e-09  3.403959189e-14  1.964640506e-14  
                   1.439318683e-14  3.807560614e-14  3.307475599e-14  
                   4.797728944e-14  8.000000000e-10  7.988243168e-10  
                   0.000000000e+00  1.000000000e+00  0.000000000e+00  
                  -3.995069484e-08 -1.439546722e-07  2.394080512e-07  
                  -5.550268401e-08    failed           failed         
                     failed           failed           failed         
                     failed           failed           failed         
                   2.400000000e-14  2.500000000e+01 1                 
 95                9.500000000e+01  4.010000000e-09  5.000000000e-12  
                   8.000000000e-10  1.500000000e-14  0.000000000e+00  
                   1.200000000e+00  4.000000000e-09  1.200000000e+00  
                   4.010000000e-09  1.200000000e+00  4.170000000e-09  
                   1.140000000e+00  4.330000000e-09  9.822554283e-01  
                   4.490000000e-09  8.231813069e-01  4.650000000e-09  
                   6.836503920e-01  4.810000000e-09  5.598076211e-01  
                   4.970000000e-09  4.485583756e-01  5.130000000e-09  
                   3.474184761e-01  5.290000000e-09  2.543937690e-01  
                   5.450000000e-09  1.678834640e-01  5.610000000e-09  
                   8.660254038e-02  5.770000000e-09  9.519458516e-03  
                   5.930000000e-09  0.000000000e+00  6.090000000e-09  
                   0.000000000e+00  0.000000000e+00  1.200000000e+00  
                   4.000000000e-07  1.200000000e+00  1.579449103e-10  
                   4.758073024e-09  5.554407380e-11    failed         
                   4.412734190e-09  5.211558506e-09  5.665218426e-09  
                     failed           failed         4.026000000e-09  
                   5.211558506e-09  3.403468648e-14  1.966367057e-14  
                   1.437101590e-14  3.807011910e-14  3.310382252e-14  
                   4.790338635e-14  8.000000000e-10  7.988243168e-10  
                   0.000000000e+00  1.000000000e+00  0.000000000e+00  
                  -3.995069484e-08 -1.439546722e-07  2.394080512e-07  
                  -5.550268401e-08    failed           failed         
                     failed           failed           failed         
                     failed           failed           failed         
                   2.400000000e-14  2.500000000e+01 1                 
 96                9.600000000e+01  4.010000000e-09  5.000000000e-12  
                   8.000000000e-10  1.800000000e-14  0.000000000e+00  
                   1.200000000e+00  4.000000000e-09  1.200000000e+00  
                   4.010000000e-09  1.200000000e+00  4.170000000e-09  
                   1.140000000e+00  4.330000000e-09  9.822554283e-01  
                   4.490000000e-09  8.231813069e-01  4.650000000e-09  
                   6.836503920e-01  4.810000000e-09  5.598076211e-01  
                   4.970000000e-09  4.485583756e-01  5.130000000e-09  
                   3.474184761e-01  5.290000000e-09  2.543937690e-01  
                   5.450000000e-09  1.678834640e-01  5.610000000e-09  
                   8.660254038e-02  5.770000000e-09  9.519458516e-03  
                   5.930000000e-09  0.000000000e+00  6.090000000e-09  
                   0.000000000e+00  0.000000000e+00  1.200000000e+00  
                   4.000000000e-07  1.200000000e+00  1.594635957e-10  
                   4.758073024e-09  5.470033697e-11    failed         
                   4.412734190e-09  5.211558506e-09  5.665218426e-09  
                     failed           failed         4.026000000e-09  
                   5.211558506e-09  3.404223433e-14  1.967854459e-14  
                   1.436368974e-14  3.807856190e-14  3.312886295e-14  
                   4.787896580e-14  8.000000000e-10  7.988243168e-10  
                   0.000000000e+00  1.000000000e+00  0.000000000e+00  
                  -3.995069484e-08 -1.439546722e-07  2.394080512e-07  
                  -5.550268401e-08    failed           failed         
                     failed           failed           failed         
                     failed           failed           failed         
                   2.400000000e-14  2.500000000e+01 1                 
 97                9.700000000e+01  4.010000000e-09  5.000000000e-12  
                   8.000000000e-10  2.100000000e-14  0.000000000e+00  
                   1.200000000e+00  4.000000000e-09  1.200000000e+00  
                   4.010000000e-09  1.200000000e+00  4.170000000e-09  
                   1.140000000e+00  4.330000000e-09  9.822554283e-01  
                   4.490000000e-09  8.231813069e-01  4.650000000e-09  
                   6.836503920e-01  4.810000000e-09  5.598076211e-01  
                   4.970000000e-09  4.485583756e-01  5.130000000e-09  
                   3.474184761e-01  5.290000000e-09  2.543937690e-01  
                   5.450000000e-09  1.678834640e-01  5.610000000e-09  
                   8.660254038e-02  5.770000000e-09  9.519458516e-03  
                   5.930000000e-09  0.000000000e+00  6.090000000e-09  
                   0.000000000e+00  0.000000000e+00  1.200000000e+00  
                   4.000000000e-07  1.200000000e+00  1.616533381e-10  
                   4.758073024e-09  5.408930254e-11    failed         
                   4.412734190e-09  5.211558506e-09  5.665218426e-09  
                     failed           failed         4.026000000e-09  
                   5.211558506e-09  3.398806080e-14  1.969148995e-14  
                   1.429657085e-14  3.801796511e-14  3.315065649e-14  
                   4.765523617e-14  8.000000000e-10  7.988243168e-10  
                   0.000000000e+00  1.000000000e+00  0.000000000e+00  
                  -3.995069484e-08 -1.439546722e-07  2.394080512e-07  
                  -5.550268401e-08    failed           failed         
                     failed           failed           failed         
                     failed           failed           failed         
                   2.400000000e-14  2.500000000e+01 1                 
 98                9.800000000e+01  4.010000000e-09  5.000000000e-12  
                   8.000000000e-10  2.400000000e-14  0.000000000e+00  
                   1.200000000e+00  4.000000000e-09  1.200000000e+00  
                   4.010000000e-09  1.200000000e+00  4.170000000e-09  
                   1.140000000e+00  4.330000000e-09  9.822554283e-01  
                   4.490000000e-09  8.231813069e-01  4.650000000e-09  
                   6.836503920e-01  4.810000000e-09  5.598076211e-01  
                   4.970000000e-09  4.485583756e-01  5.130000000e-09  
                   3.474184761e-01  5.290000000e-09  2.543937690e-01  
                   5.450000000e-09  1.678834640e-01  5.610000000e-09  
                   8.660254038e-02  5.770000000e-09  9.519458516e-03  
                   5.930000000e-09  0.000000000e+00  6.090000000e-09  
                   0.000000000e+00  0.000000000e+00  1.200000000e+00  
                   4.000000000e-07  1.200000000e+00  1.628667356e-10  
                   4.758073024e-09  5.340628228e-11    failed         
                   4.412734190e-09  5.211558506e-09  5.665218426e-09  
                     failed           failed         4.026000000e-09  
                   5.211558506e-09  3.399868945e-14  1.970285770e-14  
                   1.429583174e-14  3.802985397e-14  3.316979412e-14  
                   4.765277248e-14  8.000000000e-10  7.988243168e-10  
                   0.000000000e+00  1.000000000e+00  0.000000000e+00  
                  -3.995069484e-08 -1.439546722e-07  2.394080512e-07  
                  -5.550268401e-08    failed           failed         
                     failed           failed           failed         
                     failed           failed           failed         
                   2.400000000e-14  2.500000000e+01 1                 
 99                9.900000000e+01  4.010000000e-09  5.000000000e-12  
                   8.000000000e-10  2.700000000e-14  0.000000000e+00  
                   1.200000000e+00  4.000000000e-09  1.200000000e+00  
                   4.010000000e-09  1.200000000e+00  4.170000000e-09  
                   1.140000000e+00  4.330000000e-09  9.822554283e-01  
                   4.490000000e-09  8.231813069e-01  4.650000000e-09  
                   6.836503920e-01  4.810000000e-09  5.598076211e-01  
                   4.970000000e-09  4.485583756e-01  5.130000000e-09  
                   3.474184761e-01  5.290000000e-09  2.543937690e-01  
                   5.450000000e-09  1.678834640e-01  5.610000000e-09  
                   8.660254038e-02  5.770000000e-09  9.519458516e-03  
                   5.930000000e-09  0.000000000e+00  6.090000000e-09  
                   0.000000000e+00  0.000000000e+00  1.200000000e+00  
                   4.000000000e-07  1.200000000e+00  1.640208858e-10  
                   4.758073024e-09  5.289900903e-11    failed         
                   4.412734190e-09  5.211558506e-09  5.665218426e-09  
                     failed           failed         4.026000000e-09  
                   5.211558506e-09  3.400472993e-14  1.971291884e-14  
                   1.429181110e-14  3.803661067e-14  3.318673205e-14  
                   4.763937032e-14  8.000000000e-10  7.988243168e-10  
                   0.000000000e+00  1.000000000e+00  0.000000000e+00  
                  -3.995069484e-08 -1.439546722e-07  2.394080512e-07  
                  -5.550268401e-08    failed           failed         
                     failed           failed           failed         
                     failed           failed           failed         
                   2.400000000e-14  2.500000000e+01 1                 
 100               1.000000000e+02  4.010000000e-09  5.000000000e-12  
                   8.000000000e-10  3.000000000e-14  0.000000000e+00  
                   1.200000000e+00  4.000000000e-09  1.200000000e+00  
                   4.010000000e-09  1.200000000e+00  4.170000000e-09  
                   1.140000000e+00  4.330000000e-09  9.822554283e-01  
                   4.490000000e-09  8.231813069e-01  4.650000000e-09  
                   6.836503920e-01  4.810000000e-09  5.598076211e-01  
                   4.970000000e-09  4.485583756e-01  5.130000000e-09  
                   3.474184761e-01  5.290000000e-09  2.543937690e-01  
                   5.450000000e-09  1.678834640e-01  5.610000000e-09  
                   8.660254038e-02  5.770000000e-09  9.519458516e-03  
                   5.930000000e-09  0.000000000e+00  6.090000000e-09  
                   0.000000000e+00  0.000000000e+00  1.200000000e+00  
                   4.000000000e-07  1.200000000e+00  1.651258730e-10  
                   4.758073024e-09  5.258454036e-11    failed         
                   4.412734190e-09  5.211558506e-09  5.665218426e-09  
                     failed           failed         4.026000000e-09  
                   5.211558506e-09  3.399986962e-14  1.972188581e-14  
                   1.427798382e-14  3.803117408e-14  3.320182796e-14  
                   4.759327939e-14  8.000000000e-10  7.988243168e-10  
                   0.000000000e+00  1.000000000e+00  0.000000000e+00  
                  -3.995069483e-08 -1.439546722e-07  2.394080512e-07  
                  -5.550268401e-08    failed           failed         
                     failed           failed           failed         
                     failed           failed           failed         
                   2.400000000e-14  2.500000000e+01 1                 
 101               1.010000000e+02  4.010000000e-09  5.000000000e-12  
                   8.000000000e-10  3.300000000e-14  0.000000000e+00  
                   1.200000000e+00  4.000000000e-09  1.200000000e+00  
                   4.010000000e-09  1.200000000e+00  4.170000000e-09  
                   1.140000000e+00  4.330000000e-09  9.822554283e-01  
                   4.490000000e-09  8.231813069e-01  4.650000000e-09  
                   6.836503920e-01  4.810000000e-09  5.598076211e-01  
                   4.970000000e-09  4.485583756e-01  5.130000000e-09  
                   3.474184761e-01  5.290000000e-09  2.543937690e-01  
                   5.450000000e-09  1.678834640e-01  5.610000000e-09  
                   8.660254038e-02  5.770000000e-09  9.519458516e-03  
                   5.930000000e-09  0.000000000e+00  6.090000000e-09  
                   0.000000000e+00  0.000000000e+00  1.200000000e+00  
                   4.000000000e-07  1.200000000e+00  1.661955298e-10  
                   4.758073024e-09  5.231975572e-11    failed         
                   4.412734190e-09  5.211558506e-09  5.665218426e-09  
                     failed           failed         4.026000000e-09  
                   5.211558506e-09  3.398940142e-14  1.972992747e-14  
                   1.425947395e-14  3.801946468e-14  3.321536612e-14  
                   4.753157983e-14  8.000000000e-10  7.988243168e-10  
                   0.000000000e+00  1.000000000e+00  0.000000000e+00  
                  -3.995069483e-08 -1.439546722e-07  2.394080512e-07  
                  -5.550268401e-08    failed           failed         
                     failed           failed           failed         
                     failed           failed           failed         
                   2.400000000e-14  2.500000000e+01 1                 
 102               1.020000000e+02  4.010000000e-09  5.000000000e-12  
                   8.000000000e-10  3.600000000e-14  0.000000000e+00  
                   1.200000000e+00  4.000000000e-09  1.200000000e+00  
                   4.010000000e-09  1.200000000e+00  4.170000000e-09  
                   1.140000000e+00  4.330000000e-09  9.822554283e-01  
                   4.490000000e-09  8.231813069e-01  4.650000000e-09  
                   6.836503920e-01  4.810000000e-09  5.598076211e-01  
                   4.970000000e-09  4.485583756e-01  5.130000000e-09  
                   3.474184761e-01  5.290000000e-09  2.543937690e-01  
                   5.450000000e-09  1.678834640e-01  5.610000000e-09  
                   8.660254038e-02  5.770000000e-09  9.519458516e-03  
                   5.930000000e-09  0.000000000e+00  6.090000000e-09  
                   0.000000000e+00  0.000000000e+00  1.200000000e+00  
                   4.000000000e-07  1.200000000e+00  1.672227024e-10  
                   4.758073024e-09  5.210034401e-11    failed         
                   4.412734190e-09  5.211558506e-09  5.665218426e-09  
                     failed           failed         4.026000000e-09  
                   5.211558506e-09  3.397971786e-14  1.973717974e-14  
                   1.424253812e-14  3.800863296e-14  3.322757533e-14  
                   4.747512706e-14  8.000000000e-10  7.988243168e-10  
                   0.000000000e+00  1.000000000e+00  0.000000000e+00  
                  -3.995069483e-08 -1.439546722e-07  2.394080512e-07  
                  -5.550268401e-08    failed           failed         
                     failed           failed           failed         
                     failed           failed           failed         
                   2.400000000e-14  2.500000000e+01 1                 
 103               1.030000000e+02  4.010000000e-09  5.000000000e-12  
                   8.000000000e-10  4.000000000e-14  0.000000000e+00  
                   1.200000000e+00  4.000000000e-09  1.200000000e+00  
                   4.010000000e-09  1.200000000e+00  4.170000000e-09  
                   1.140000000e+00  4.330000000e-09  9.822554283e-01  
                   4.490000000e-09  8.231813069e-01  4.650000000e-09  
                   6.836503920e-01  4.810000000e-09  5.598076211e-01  
                   4.970000000e-09  4.485583756e-01  5.130000000e-09  
                   3.474184761e-01  5.290000000e-09  2.543937690e-01  
                   5.450000000e-09  1.678834640e-01  5.610000000e-09  
                   8.660254038e-02  5.770000000e-09  9.519458516e-03  
                   5.930000000e-09  0.000000000e+00  6.090000000e-09  
                   0.000000000e+00  0.000000000e+00  1.200000000e+00  
                   4.000000000e-07  1.200000000e+00  1.680592767e-10  
                   4.758073024e-09  5.203872283e-11    failed         
                   4.412734190e-09  5.211558506e-09  5.665218426e-09  
                     failed           failed         4.026000000e-09  
                   5.211558506e-09  3.402831926e-14  1.974580968e-14  
                   1.428250958e-14  3.806299693e-14  3.324210384e-14  
                   4.760836527e-14  8.000000000e-10  7.988243168e-10  
                   0.000000000e+00  1.000000000e+00  0.000000000e+00  
                  -3.995069483e-08 -1.439546722e-07  2.394080512e-07  
                  -5.550268401e-08    failed           failed         
                     failed           failed           failed         
                     failed           failed           failed         
                   2.400000000e-14  2.500000000e+01 1                 
 104               1.040000000e+02  4.010000000e-09  5.000000000e-12  
                   8.000000000e-10  4.200000000e-14  0.000000000e+00  
                   1.200000000e+00  4.000000000e-09  1.200000000e+00  
                   4.010000000e-09  1.200000000e+00  4.170000000e-09  
                   1.140000000e+00  4.330000000e-09  9.822554283e-01  
                   4.490000000e-09  8.231813069e-01  4.650000000e-09  
                   6.836503920e-01  4.810000000e-09  5.598076211e-01  
                   4.970000000e-09  4.485583756e-01  5.130000000e-09  
                   3.474184761e-01  5.290000000e-09  2.543937690e-01  
                   5.450000000e-09  1.678834640e-01  5.610000000e-09  
                   8.660254038e-02  5.770000000e-09  9.519458516e-03  
                   5.930000000e-09  0.000000000e+00  6.090000000e-09  
                   0.000000000e+00  0.000000000e+00  1.200000000e+00  
                   4.000000000e-07  1.200000000e+00  1.687412421e-10  
                   4.758073024e-09  5.200828588e-11    failed         
                   4.412734190e-09  5.211558506e-09  5.665218426e-09  
                     failed           failed         4.026000000e-09  
                   5.211558506e-09  3.403039124e-14  1.974973870e-14  
                   1.428065254e-14  3.806531459e-14  3.324871835e-14  
                   4.760217513e-14  8.000000000e-10  7.988243168e-10  
                   0.000000000e+00  1.000000000e+00  0.000000000e+00  
                  -3.995069483e-08 -1.439546722e-07  2.394080512e-07  
                  -5.550268401e-08    failed           failed         
                     failed           failed           failed         
                     failed           failed           failed         
                   2.400000000e-14  2.500000000e+01 1                 
