 ****** HSPICE -- F-2011.09-SP1 64-BIT (Nov 18 2011) linux ******               
  Copyright (C) 2011 Synopsys, Inc. All Rights Reserved.                        
  Unpublished-rights reserved under US copyright laws.
  This program is protected by law and is subject to the
  terms and conditions of the license agreement from Synopsys.
  Use of this program is your acceptance to be bound by the
  license agreement. HSPICE is the trademark of Synopsys, Inc.
  Input File: /home/mrezaie/Downloads/ncx_inv/lib_all/and2/tOut_A_0000f/tOut_A_0
  Command line options: -i /home/mrezaie/Downloads/ncx_inv/lib_all/and2/tOut_A_0000f/tOut_A_0000f.sp -o /home/mrezaie/Downloads/ncx_inv/lib_all/and2/tOut_A_0000f/tOut_A_0000f
 lic:  
 lic: FLEXlm: v10.8 
 lic: USER:   mrezaie              HOSTNAME: Microelectronic.lab.edu 
 lic: HOSTID: ac162d8b13a0         PID:      4045 
 lic: Using FLEXlm license file: 
 lic: /opt/Admin/cadence.dat 
 lic: Checkout 1 hspice 
 lic: License/Maintenance for hspice will expire on 31-dec-2019/2019.12 
 lic: NODE LOCKED license on hostid ac162d8b13a0 
 lic:   
  **info**  the obsolete option nopage is ignored
  **info** (/home/mrezaie/Downloads/ncx_inv/lib_all/and2/tOut_A_0000f/tOut_A_0000f.sp:791) DC voltage reset to initial transient source value              in source        0:vn_a2               new dc=  0.1200D+01
  
      
 *****************************************************************
 ******  option summary
 ******
 runlvl  = 5         bypass  = 2         
  Opening plot unit= 15
 file=/home/mrezaie/Downloads/ncx_inv/lib_all/and2/tOut_A_0000f/tOut_A_0000f.pa


   *** data name = stimdata , index =     1 ***

 ******  
 * hspice timing acquisition

  ******  transient analysis tnom=  25.000 temp=  25.000 *****
 nc_delay_a_out= 1.536819198e-11  targ= 4.030979329e-09   trig= 4.015611137e-09
 nc_inref_a= 4.015611137e-09
 nc_optr_out= 6.708652198e-12  targ= 4.034296380e-09   trig= 4.027587727e-09
  **warning** (/home/mrezaie/Downloads/ncx_inv/lib_all/and2/tOut_A_0000f/tOut_A_0000f.sp:839) .MEASURE  nc_fulloptr_out never reached the trigger value, Measurement failed!
  **warning** (/home/mrezaie/Downloads/ncx_inv/lib_all/and2/tOut_A_0000f/tOut_A_0000f.sp:839) .MEASURE  nc_fulloptr_out never reached the target value, Measurement failed!
   nc_fulloptr_out= failed                          trig= not found
 t_a_trip1= 4.013020506e-09
 t_a_trip2= 4.019017534e-09
 t_stop_a= 4.022414138e-09
   t_stop_out= failed
   t_simstop= failed                         measure parameter failed
 t_a_trip_incap1= 4.010120000e-09
 t_a_trip_incap2= 4.019017534e-09
 nc_intg_i_a= 2.821965924e-14  from= 4.010120000e-09     to= 4.019017534e-09
 nc_intg_i1_a= 1.745377266e-14  from= 4.010120000e-09     to= 4.015611137e-09
 nc_intg_i2_a= 1.076588657e-14  from= 4.015611137e-09     to= 4.019017534e-09
 nc_incap_a= 3.156561436e-14
 nc_incap_c1_a= 2.938345566e-14
 nc_incap_c2_a= 3.588628857e-14
 nc_iptr_a= 6.000000000e-12
 real_iptr_a= 5.997027880e-12  targ= 4.019017534e-09   trig= 4.013020506e-09
 nc_when_a= 0.000000000e+00
 nc_when_b= 1.000000000e+00
 nc_when_out= 0.000000000e+00
 nc_leak_i_a=-3.995069484e-08  from= 0.000000000e+00     to= 4.000000000e-09
 nc_leak_i_b=-1.439546723e-07  from= 0.000000000e+00     to= 4.000000000e-09
 nc_leak_i_vss= 2.394080512e-07  from= 0.000000000e+00     to= 4.000000000e-09
 nc_leak_i_vdd=-5.550268401e-08  from= 0.000000000e+00     to= 4.000000000e-09
   nc_dyn_energy= failed                         measure parameter failed
   t_int_energy= failed                         measure parameter failed
   nc_int_energy= failed                         measure parameter failed
   nc_dyn_eng_vss= failed                         measure parameter failed
   nc_dyn_eng_vdd= failed                         measure parameter failed
   nc_dyn_abs_energy= failed                         measure parameter failed
   nc_charge_vss= failed                         measure parameter failed
   nc_charge_vdd= failed                         measure parameter failed
 nc_sidecap= 2.400000000e-14

          ***** job concluded

   *** data name = stimdata , index =     2 ***

 ******  
 * hspice timing acquisition

  ******  transient analysis tnom=  25.000 temp=  25.000 *****
 nc_delay_a_out= 1.577293966e-11  targ= 4.031383916e-09   trig= 4.015610976e-09
 nc_inref_a= 4.015610976e-09
 nc_optr_out= 6.912290095e-12  targ= 4.034806755e-09   trig= 4.027894465e-09
   nc_fulloptr_out= failed                          trig= not found
 t_a_trip1= 4.013022327e-09
 t_a_trip2= 4.019006696e-09
 t_stop_a= 4.022414138e-09
   t_stop_out= failed
   t_simstop= failed                         measure parameter failed
 t_a_trip_incap1= 4.010120000e-09
 t_a_trip_incap2= 4.019006696e-09
 nc_intg_i_a= 2.829117223e-14  from= 4.010120000e-09     to= 4.019006696e-09
 nc_intg_i1_a= 1.748808621e-14  from= 4.010120000e-09     to= 4.015610976e-09
 nc_intg_i2_a= 1.080308602e-14  from= 4.015610976e-09     to= 4.019006696e-09
 nc_incap_a= 3.164560653e-14
 nc_incap_c1_a= 2.944122258e-14
 nc_incap_c2_a= 3.601028674e-14
 nc_iptr_a= 6.000000000e-12
 real_iptr_a= 5.984369169e-12  targ= 4.019006696e-09   trig= 4.013022327e-09
 nc_when_a= 0.000000000e+00
 nc_when_b= 1.000000000e+00
 nc_when_out= 0.000000000e+00
 nc_leak_i_a=-3.995069484e-08  from= 0.000000000e+00     to= 4.000000000e-09
 nc_leak_i_b=-1.439546723e-07  from= 0.000000000e+00     to= 4.000000000e-09
 nc_leak_i_vss= 2.394080512e-07  from= 0.000000000e+00     to= 4.000000000e-09
 nc_leak_i_vdd=-5.550268401e-08  from= 0.000000000e+00     to= 4.000000000e-09
   nc_dyn_energy= failed                         measure parameter failed
   t_int_energy= failed                         measure parameter failed
   nc_int_energy= failed                         measure parameter failed
   nc_dyn_eng_vss= failed                         measure parameter failed
   nc_dyn_eng_vdd= failed                         measure parameter failed
   nc_dyn_abs_energy= failed                         measure parameter failed
   nc_charge_vss= failed                         measure parameter failed
   nc_charge_vdd= failed                         measure parameter failed
 nc_sidecap= 2.400000000e-14

          ***** job concluded

   *** data name = stimdata , index =     3 ***

 ******  
 * hspice timing acquisition

  ******  transient analysis tnom=  25.000 temp=  25.000 *****
 nc_delay_a_out= 1.615569976e-11  targ= 4.031766709e-09   trig= 4.015611009e-09
 nc_inref_a= 4.015611009e-09
 nc_optr_out= 7.118484465e-12  targ= 4.035301054e-09   trig= 4.028182570e-09
   nc_fulloptr_out= failed                          trig= not found
 t_a_trip1= 4.013022315e-09
 t_a_trip2= 4.019006682e-09
 t_stop_a= 4.022414138e-09
   t_stop_out= failed
   t_simstop= failed                         measure parameter failed
 t_a_trip_incap1= 4.010120000e-09
 t_a_trip_incap2= 4.019006682e-09
 nc_intg_i_a= 2.833276288e-14  from= 4.010120000e-09     to= 4.019006682e-09
 nc_intg_i1_a= 1.752137879e-14  from= 4.010120000e-09     to= 4.015611009e-09
 nc_intg_i2_a= 1.081138409e-14  from= 4.015611009e-09     to= 4.019006682e-09
 nc_incap_a= 3.169212850e-14
 nc_incap_c1_a= 2.949727068e-14
 nc_incap_c2_a= 3.603794697e-14
 nc_iptr_a= 6.000000000e-12
 real_iptr_a= 5.984367259e-12  targ= 4.019006682e-09   trig= 4.013022315e-09
 nc_when_a= 0.000000000e+00
 nc_when_b= 1.000000000e+00
 nc_when_out= 0.000000000e+00
 nc_leak_i_a=-3.995069484e-08  from= 0.000000000e+00     to= 4.000000000e-09
 nc_leak_i_b=-1.439546722e-07  from= 0.000000000e+00     to= 4.000000000e-09
 nc_leak_i_vss= 2.394080512e-07  from= 0.000000000e+00     to= 4.000000000e-09
 nc_leak_i_vdd=-5.550268401e-08  from= 0.000000000e+00     to= 4.000000000e-09
   nc_dyn_energy= failed                         measure parameter failed
   t_int_energy= failed                         measure parameter failed
   nc_int_energy= failed                         measure parameter failed
   nc_dyn_eng_vss= failed                         measure parameter failed
   nc_dyn_eng_vdd= failed                         measure parameter failed
   nc_dyn_abs_energy= failed                         measure parameter failed
   nc_charge_vss= failed                         measure parameter failed
   nc_charge_vdd= failed                         measure parameter failed
 nc_sidecap= 2.400000000e-14

          ***** job concluded

   *** data name = stimdata , index =     4 ***

 ******  
 * hspice timing acquisition

  ******  transient analysis tnom=  25.000 temp=  25.000 *****
 nc_delay_a_out= 1.651352842e-11  targ= 4.032124595e-09   trig= 4.015611066e-09
 nc_inref_a= 4.015611066e-09
 nc_optr_out= 7.314597951e-12  targ= 4.035779480e-09   trig= 4.028464882e-09
   nc_fulloptr_out= failed                          trig= not found
 t_a_trip1= 4.013022309e-09
 t_a_trip2= 4.019006702e-09
 t_stop_a= 4.022414138e-09
   t_stop_out= failed
   t_simstop= failed                         measure parameter failed
 t_a_trip_incap1= 4.010120000e-09
 t_a_trip_incap2= 4.019006702e-09
 nc_intg_i_a= 2.836792633e-14  from= 4.010120000e-09     to= 4.019006702e-09
 nc_intg_i1_a= 1.754923435e-14  from= 4.010120000e-09     to= 4.015611066e-09
 nc_intg_i2_a= 1.081869197e-14  from= 4.015611066e-09     to= 4.019006702e-09
 nc_incap_a= 3.173146122e-14
 nc_incap_c1_a= 2.954416558e-14
 nc_incap_c2_a= 3.606230658e-14
 nc_iptr_a= 6.000000000e-12
 real_iptr_a= 5.984393075e-12  targ= 4.019006702e-09   trig= 4.013022309e-09
 nc_when_a= 0.000000000e+00
 nc_when_b= 1.000000000e+00
 nc_when_out= 0.000000000e+00
 nc_leak_i_a=-3.995069484e-08  from= 0.000000000e+00     to= 4.000000000e-09
 nc_leak_i_b=-1.439546722e-07  from= 0.000000000e+00     to= 4.000000000e-09
 nc_leak_i_vss= 2.394080512e-07  from= 0.000000000e+00     to= 4.000000000e-09
 nc_leak_i_vdd=-5.550268401e-08  from= 0.000000000e+00     to= 4.000000000e-09
   nc_dyn_energy= failed                         measure parameter failed
   t_int_energy= failed                         measure parameter failed
   nc_int_energy= failed                         measure parameter failed
   nc_dyn_eng_vss= failed                         measure parameter failed
   nc_dyn_eng_vdd= failed                         measure parameter failed
   nc_dyn_abs_energy= failed                         measure parameter failed
   nc_charge_vss= failed                         measure parameter failed
   nc_charge_vdd= failed                         measure parameter failed
 nc_sidecap= 2.400000000e-14

          ***** job concluded

   *** data name = stimdata , index =     5 ***

 ******  
 * hspice timing acquisition

  ******  transient analysis tnom=  25.000 temp=  25.000 *****
 nc_delay_a_out= 1.687694088e-11  targ= 4.032488049e-09   trig= 4.015611108e-09
 nc_inref_a= 4.015611108e-09
 nc_optr_out= 7.525245469e-12  targ= 4.036247513e-09   trig= 4.028722268e-09
   nc_fulloptr_out= failed                          trig= not found
 t_a_trip1= 4.013022303e-09
 t_a_trip2= 4.019006708e-09
 t_stop_a= 4.022414138e-09
   t_stop_out= failed
   t_simstop= failed                         measure parameter failed
 t_a_trip_incap1= 4.010120000e-09
 t_a_trip_incap2= 4.019006708e-09
 nc_intg_i_a= 2.839796251e-14  from= 4.010120000e-09     to= 4.019006708e-09
 nc_intg_i1_a= 1.757284311e-14  from= 4.010120000e-09     to= 4.015611108e-09
 nc_intg_i2_a= 1.082511941e-14  from= 4.015611108e-09     to= 4.019006708e-09
 nc_incap_a= 3.176505874e-14
 nc_incap_c1_a= 2.958391095e-14
 nc_incap_c2_a= 3.608373136e-14
 nc_iptr_a= 6.000000000e-12
 real_iptr_a= 5.984405222e-12  targ= 4.019006708e-09   trig= 4.013022303e-09
 nc_when_a= 0.000000000e+00
 nc_when_b= 1.000000000e+00
 nc_when_out= 0.000000000e+00
 nc_leak_i_a=-3.995069484e-08  from= 0.000000000e+00     to= 4.000000000e-09
 nc_leak_i_b=-1.439546722e-07  from= 0.000000000e+00     to= 4.000000000e-09
 nc_leak_i_vss= 2.394080512e-07  from= 0.000000000e+00     to= 4.000000000e-09
 nc_leak_i_vdd=-5.550268401e-08  from= 0.000000000e+00     to= 4.000000000e-09
   nc_dyn_energy= failed                         measure parameter failed
   t_int_energy= failed                         measure parameter failed
   nc_int_energy= failed                         measure parameter failed
   nc_dyn_eng_vss= failed                         measure parameter failed
   nc_dyn_eng_vdd= failed                         measure parameter failed
   nc_dyn_abs_energy= failed                         measure parameter failed
   nc_charge_vss= failed                         measure parameter failed
   nc_charge_vdd= failed                         measure parameter failed
 nc_sidecap= 2.400000000e-14

          ***** job concluded

   *** data name = stimdata , index =     6 ***

 ******  
 * hspice timing acquisition

  ******  transient analysis tnom=  25.000 temp=  25.000 *****
 nc_delay_a_out= 1.718888180e-11  targ= 4.032800022e-09   trig= 4.015611141e-09
 nc_inref_a= 4.015611141e-09
 nc_optr_out= 7.753782760e-12  targ= 4.036699508e-09   trig= 4.028945725e-09
   nc_fulloptr_out= failed                          trig= not found
 t_a_trip1= 4.013022298e-09
 t_a_trip2= 4.019006707e-09
 t_stop_a= 4.022414138e-09
   t_stop_out= failed
   t_simstop= failed                         measure parameter failed
 t_a_trip_incap1= 4.010120000e-09
 t_a_trip_incap2= 4.019006707e-09
 nc_intg_i_a= 2.842390962e-14  from= 4.010120000e-09     to= 4.019006707e-09
 nc_intg_i1_a= 1.759310358e-14  from= 4.010120000e-09     to= 4.015611141e-09
 nc_intg_i2_a= 1.083080604e-14  from= 4.015611141e-09     to= 4.019006707e-09
 nc_incap_a= 3.179408235e-14
 nc_incap_c1_a= 2.961801950e-14
 nc_incap_c2_a= 3.610268679e-14
 nc_iptr_a= 6.000000000e-12
 real_iptr_a= 5.984409133e-12  targ= 4.019006707e-09   trig= 4.013022298e-09
 nc_when_a= 0.000000000e+00
 nc_when_b= 1.000000000e+00
 nc_when_out= 0.000000000e+00
 nc_leak_i_a=-3.995069484e-08  from= 0.000000000e+00     to= 4.000000000e-09
 nc_leak_i_b=-1.439546722e-07  from= 0.000000000e+00     to= 4.000000000e-09
 nc_leak_i_vss= 2.394080512e-07  from= 0.000000000e+00     to= 4.000000000e-09
 nc_leak_i_vdd=-5.550268401e-08  from= 0.000000000e+00     to= 4.000000000e-09
   nc_dyn_energy= failed                         measure parameter failed
   t_int_energy= failed                         measure parameter failed
   nc_int_energy= failed                         measure parameter failed
   nc_dyn_eng_vss= failed                         measure parameter failed
   nc_dyn_eng_vdd= failed                         measure parameter failed
   nc_dyn_abs_energy= failed                         measure parameter failed
   nc_charge_vss= failed                         measure parameter failed
   nc_charge_vdd= failed                         measure parameter failed
 nc_sidecap= 2.400000000e-14

          ***** job concluded

   *** data name = stimdata , index =     7 ***

 ******  
 * hspice timing acquisition

  ******  transient analysis tnom=  25.000 temp=  25.000 *****
 nc_delay_a_out= 1.751412293e-11  targ= 4.033125288e-09   trig= 4.015611166e-09
 nc_inref_a= 4.015611166e-09
 nc_optr_out= 7.982392550e-12  targ= 4.037144052e-09   trig= 4.029161659e-09
   nc_fulloptr_out= failed                          trig= not found
 t_a_trip1= 4.013022293e-09
 t_a_trip2= 4.019006701e-09
 t_stop_a= 4.022414138e-09
   t_stop_out= failed
   t_simstop= failed                         measure parameter failed
 t_a_trip_incap1= 4.010120000e-09
 t_a_trip_incap2= 4.019006701e-09
 nc_intg_i_a= 2.844654486e-14  from= 4.010120000e-09     to= 4.019006701e-09
 nc_intg_i1_a= 1.761067846e-14  from= 4.010120000e-09     to= 4.015611166e-09
 nc_intg_i2_a= 1.083586640e-14  from= 4.015611166e-09     to= 4.019006701e-09
 nc_incap_a= 3.181940141e-14
 nc_incap_c1_a= 2.964760684e-14
 nc_incap_c2_a= 3.611955467e-14
 nc_iptr_a= 6.000000000e-12
 real_iptr_a= 5.984408013e-12  targ= 4.019006701e-09   trig= 4.013022293e-09
 nc_when_a= 0.000000000e+00
 nc_when_b= 1.000000000e+00
 nc_when_out= 0.000000000e+00
 nc_leak_i_a=-3.995069484e-08  from= 0.000000000e+00     to= 4.000000000e-09
 nc_leak_i_b=-1.439546722e-07  from= 0.000000000e+00     to= 4.000000000e-09
 nc_leak_i_vss= 2.394080512e-07  from= 0.000000000e+00     to= 4.000000000e-09
 nc_leak_i_vdd=-5.550268401e-08  from= 0.000000000e+00     to= 4.000000000e-09
   nc_dyn_energy= failed                         measure parameter failed
   t_int_energy= failed                         measure parameter failed
   nc_int_energy= failed                         measure parameter failed
   nc_dyn_eng_vss= failed                         measure parameter failed
   nc_dyn_eng_vdd= failed                         measure parameter failed
   nc_dyn_abs_energy= failed                         measure parameter failed
   nc_charge_vss= failed                         measure parameter failed
   nc_charge_vdd= failed                         measure parameter failed
 nc_sidecap= 2.400000000e-14

          ***** job concluded

   *** data name = stimdata , index =     8 ***

 ******  
 * hspice timing acquisition

  ******  transient analysis tnom=  25.000 temp=  25.000 *****
 nc_delay_a_out= 1.783012308e-11  targ= 4.033441308e-09   trig= 4.015611185e-09
 nc_inref_a= 4.015611185e-09
 nc_optr_out= 8.218195643e-12  targ= 4.037588436e-09   trig= 4.029370240e-09
   nc_fulloptr_out= failed                          trig= not found
 t_a_trip1= 4.013022288e-09
 t_a_trip2= 4.019006692e-09
 t_stop_a= 4.022414138e-09
   t_stop_out= failed
   t_simstop= failed                         measure parameter failed
 t_a_trip_incap1= 4.010120000e-09
 t_a_trip_incap2= 4.019006692e-09
 nc_intg_i_a= 2.846646122e-14  from= 4.010120000e-09     to= 4.019006692e-09
 nc_intg_i1_a= 1.762606692e-14  from= 4.010120000e-09     to= 4.015611185e-09
 nc_intg_i2_a= 1.084039430e-14  from= 4.015611185e-09     to= 4.019006692e-09
 nc_incap_a= 3.184167922e-14
 nc_incap_c1_a= 2.967351333e-14
 nc_incap_c2_a= 3.613464768e-14
 nc_iptr_a= 6.000000000e-12
 real_iptr_a= 5.984403808e-12  targ= 4.019006692e-09   trig= 4.013022288e-09
 nc_when_a= 0.000000000e+00
 nc_when_b= 1.000000000e+00
 nc_when_out= 0.000000000e+00
 nc_leak_i_a=-3.995069484e-08  from= 0.000000000e+00     to= 4.000000000e-09
 nc_leak_i_b=-1.439546722e-07  from= 0.000000000e+00     to= 4.000000000e-09
 nc_leak_i_vss= 2.394080512e-07  from= 0.000000000e+00     to= 4.000000000e-09
 nc_leak_i_vdd=-5.550268401e-08  from= 0.000000000e+00     to= 4.000000000e-09
   nc_dyn_energy= failed                         measure parameter failed
   t_int_energy= failed                         measure parameter failed
   nc_int_energy= failed                         measure parameter failed
   nc_dyn_eng_vss= failed                         measure parameter failed
   nc_dyn_eng_vdd= failed                         measure parameter failed
   nc_dyn_abs_energy= failed                         measure parameter failed
   nc_charge_vss= failed                         measure parameter failed
   nc_charge_vdd= failed                         measure parameter failed
 nc_sidecap= 2.400000000e-14

          ***** job concluded

   *** data name = stimdata , index =     9 ***

 ******  
 * hspice timing acquisition

  ******  transient analysis tnom=  25.000 temp=  25.000 *****
 nc_delay_a_out= 1.816956215e-11  targ= 4.033780763e-09   trig= 4.015611201e-09
 nc_inref_a= 4.015611201e-09
 nc_optr_out= 8.483025723e-12  targ= 4.038056604e-09   trig= 4.029573578e-09
   nc_fulloptr_out= failed                          trig= not found
 t_a_trip1= 4.013022284e-09
 t_a_trip2= 4.019006682e-09
 t_stop_a= 4.022414138e-09
   t_stop_out= failed
   t_simstop= failed                         measure parameter failed
 t_a_trip_incap1= 4.010120000e-09
 t_a_trip_incap2= 4.019006682e-09
 nc_intg_i_a= 2.848411872e-14  from= 4.010120000e-09     to= 4.019006682e-09
 nc_intg_i1_a= 1.763965199e-14  from= 4.010120000e-09     to= 4.015611201e-09
 nc_intg_i2_a= 1.084446673e-14  from= 4.015611201e-09     to= 4.019006682e-09
 nc_incap_a= 3.186143034e-14
 nc_incap_c1_a= 2.969638382e-14
 nc_incap_c2_a= 3.614822244e-14
 nc_iptr_a= 6.000000000e-12
 real_iptr_a= 5.984397734e-12  targ= 4.019006682e-09   trig= 4.013022284e-09
 nc_when_a= 0.000000000e+00
 nc_when_b= 1.000000000e+00
 nc_when_out= 0.000000000e+00
 nc_leak_i_a=-3.995069483e-08  from= 0.000000000e+00     to= 4.000000000e-09
 nc_leak_i_b=-1.439546722e-07  from= 0.000000000e+00     to= 4.000000000e-09
 nc_leak_i_vss= 2.394080512e-07  from= 0.000000000e+00     to= 4.000000000e-09
 nc_leak_i_vdd=-5.550268401e-08  from= 0.000000000e+00     to= 4.000000000e-09
   nc_dyn_energy= failed                         measure parameter failed
   t_int_energy= failed                         measure parameter failed
   nc_int_energy= failed                         measure parameter failed
   nc_dyn_eng_vss= failed                         measure parameter failed
   nc_dyn_eng_vdd= failed                         measure parameter failed
   nc_dyn_abs_energy= failed                         measure parameter failed
   nc_charge_vss= failed                         measure parameter failed
   nc_charge_vdd= failed                         measure parameter failed
 nc_sidecap= 2.400000000e-14

          ***** job concluded

   *** data name = stimdata , index =    10 ***

 ******  
 * hspice timing acquisition

  ******  transient analysis tnom=  25.000 temp=  25.000 *****
 nc_delay_a_out= 1.846930821e-11  targ= 4.034080522e-09   trig= 4.015611214e-09
 nc_inref_a= 4.015611214e-09
 nc_optr_out= 8.716422183e-12  targ= 4.038488192e-09   trig= 4.029771770e-09
   nc_fulloptr_out= failed                          trig= not found
 t_a_trip1= 4.013022281e-09
 t_a_trip2= 4.019006671e-09
 t_stop_a= 4.022414138e-09
   t_stop_out= failed
   t_simstop= failed                         measure parameter failed
 t_a_trip_incap1= 4.010120000e-09
 t_a_trip_incap2= 4.019006671e-09
 nc_intg_i_a= 2.849987956e-14  from= 4.010120000e-09     to= 4.019006671e-09
 nc_intg_i1_a= 1.765173240e-14  from= 4.010120000e-09     to= 4.015611214e-09
 nc_intg_i2_a= 1.084814716e-14  from= 4.015611214e-09     to= 4.019006671e-09
 nc_incap_a= 3.187905991e-14
 nc_incap_c1_a= 2.971672121e-14
 nc_incap_c2_a= 3.616049054e-14
 nc_iptr_a= 6.000000000e-12
 real_iptr_a= 5.984390560e-12  targ= 4.019006671e-09   trig= 4.013022281e-09
 nc_when_a= 0.000000000e+00
 nc_when_b= 1.000000000e+00
 nc_when_out= 0.000000000e+00
 nc_leak_i_a=-3.995069483e-08  from= 0.000000000e+00     to= 4.000000000e-09
 nc_leak_i_b=-1.439546722e-07  from= 0.000000000e+00     to= 4.000000000e-09
 nc_leak_i_vss= 2.394080512e-07  from= 0.000000000e+00     to= 4.000000000e-09
 nc_leak_i_vdd=-5.550268401e-08  from= 0.000000000e+00     to= 4.000000000e-09
   nc_dyn_energy= failed                         measure parameter failed
   t_int_energy= failed                         measure parameter failed
   nc_int_energy= failed                         measure parameter failed
   nc_dyn_eng_vss= failed                         measure parameter failed
   nc_dyn_eng_vdd= failed                         measure parameter failed
   nc_dyn_abs_energy= failed                         measure parameter failed
   nc_charge_vss= failed                         measure parameter failed
   nc_charge_vdd= failed                         measure parameter failed
 nc_sidecap= 2.400000000e-14

          ***** job concluded

   *** data name = stimdata , index =    11 ***

 ******  
 * hspice timing acquisition

  ******  transient analysis tnom=  25.000 temp=  25.000 *****
 nc_delay_a_out= 1.876105563e-11  targ= 4.034372281e-09   trig= 4.015611225e-09
 nc_inref_a= 4.015611225e-09
 nc_optr_out= 8.945020618e-12  targ= 4.038910523e-09   trig= 4.029965502e-09
   nc_fulloptr_out= failed                          trig= not found
 t_a_trip1= 4.013022277e-09
 t_a_trip2= 4.019006660e-09
 t_stop_a= 4.022414138e-09
   t_stop_out= failed
   t_simstop= failed                         measure parameter failed
 t_a_trip_incap1= 4.010120000e-09
 t_a_trip_incap2= 4.019006660e-09
 nc_intg_i_a= 2.851403267e-14  from= 4.010120000e-09     to= 4.019006660e-09
 nc_intg_i1_a= 1.766254445e-14  from= 4.010120000e-09     to= 4.015611225e-09
 nc_intg_i2_a= 1.085148822e-14  from= 4.015611225e-09     to= 4.019006660e-09
 nc_incap_a= 3.189489113e-14
 nc_incap_c1_a= 2.973492332e-14
 nc_incap_c2_a= 3.617162741e-14
 nc_iptr_a= 6.000000000e-12
 real_iptr_a= 5.984382786e-12  targ= 4.019006660e-09   trig= 4.013022277e-09
 nc_when_a= 0.000000000e+00
 nc_when_b= 1.000000000e+00
 nc_when_out= 0.000000000e+00
 nc_leak_i_a=-3.995069483e-08  from= 0.000000000e+00     to= 4.000000000e-09
 nc_leak_i_b=-1.439546722e-07  from= 0.000000000e+00     to= 4.000000000e-09
 nc_leak_i_vss= 2.394080512e-07  from= 0.000000000e+00     to= 4.000000000e-09
 nc_leak_i_vdd=-5.550268401e-08  from= 0.000000000e+00     to= 4.000000000e-09
   nc_dyn_energy= failed                         measure parameter failed
   t_int_energy= failed                         measure parameter failed
   nc_int_energy= failed                         measure parameter failed
   nc_dyn_eng_vss= failed                         measure parameter failed
   nc_dyn_eng_vdd= failed                         measure parameter failed
   nc_dyn_abs_energy= failed                         measure parameter failed
   nc_charge_vss= failed                         measure parameter failed
   nc_charge_vdd= failed                         measure parameter failed
 nc_sidecap= 2.400000000e-14

          ***** job concluded

   *** data name = stimdata , index =    12 ***

 ******  
 * hspice timing acquisition

  ******  transient analysis tnom=  25.000 temp=  25.000 *****
 nc_delay_a_out= 1.914171299e-11  targ= 4.034752950e-09   trig= 4.015611237e-09
 nc_inref_a= 4.015611237e-09
 nc_optr_out= 9.243137509e-12  targ= 4.039461112e-09   trig= 4.030217974e-09
   nc_fulloptr_out= failed                          trig= not found
 t_a_trip1= 4.013022273e-09
 t_a_trip2= 4.019006646e-09
 t_stop_a= 4.022414138e-09
   t_stop_out= failed
   t_simstop= failed                         measure parameter failed
 t_a_trip_incap1= 4.010120000e-09
 t_a_trip_incap2= 4.019006646e-09
 nc_intg_i_a= 2.853079946e-14  from= 4.010120000e-09     to= 4.019006646e-09
 nc_intg_i1_a= 1.767530959e-14  from= 4.010120000e-09     to= 4.015611237e-09
 nc_intg_i2_a= 1.085548987e-14  from= 4.015611237e-09     to= 4.019006646e-09
 nc_incap_a= 3.191364593e-14
 nc_incap_c1_a= 2.975641344e-14
 nc_incap_c2_a= 3.618496624e-14
 nc_iptr_a= 6.000000000e-12
 real_iptr_a= 5.984372032e-12  targ= 4.019006646e-09   trig= 4.013022273e-09
 nc_when_a= 0.000000000e+00
 nc_when_b= 1.000000000e+00
 nc_when_out= 0.000000000e+00
 nc_leak_i_a=-3.995069483e-08  from= 0.000000000e+00     to= 4.000000000e-09
 nc_leak_i_b=-1.439546722e-07  from= 0.000000000e+00     to= 4.000000000e-09
 nc_leak_i_vss= 2.394080512e-07  from= 0.000000000e+00     to= 4.000000000e-09
 nc_leak_i_vdd=-5.550268401e-08  from= 0.000000000e+00     to= 4.000000000e-09
   nc_dyn_energy= failed                         measure parameter failed
   t_int_energy= failed                         measure parameter failed
   nc_int_energy= failed                         measure parameter failed
   nc_dyn_eng_vss= failed                         measure parameter failed
   nc_dyn_eng_vdd= failed                         measure parameter failed
   nc_dyn_abs_energy= failed                         measure parameter failed
   nc_charge_vss= failed                         measure parameter failed
   nc_charge_vdd= failed                         measure parameter failed
 nc_sidecap= 2.400000000e-14

          ***** job concluded

   *** data name = stimdata , index =    13 ***

 ******  
 * hspice timing acquisition

  ******  transient analysis tnom=  25.000 temp=  25.000 *****
 nc_delay_a_out= 1.932883909e-11  targ= 4.034940081e-09   trig= 4.015611242e-09
 nc_inref_a= 4.015611242e-09
 nc_optr_out= 9.394515853e-12  targ= 4.039736416e-09   trig= 4.030341900e-09
   nc_fulloptr_out= failed                          trig= not found
 t_a_trip1= 4.013022272e-09
 t_a_trip2= 4.019006638e-09
 t_stop_a= 4.022414138e-09
   t_stop_out= failed
   t_simstop= failed                         measure parameter failed
 t_a_trip_incap1= 4.010120000e-09
 t_a_trip_incap2= 4.019006638e-09
 nc_intg_i_a= 2.853840603e-14  from= 4.010120000e-09     to= 4.019006638e-09
 nc_intg_i1_a= 1.768108531e-14  from= 4.010120000e-09     to= 4.015611242e-09
 nc_intg_i2_a= 1.085732072e-14  from= 4.015611242e-09     to= 4.019006638e-09
 nc_incap_a= 3.192215439e-14
 nc_incap_c1_a= 2.976613688e-14
 nc_incap_c2_a= 3.619106907e-14
 nc_iptr_a= 6.000000000e-12
 real_iptr_a= 5.984366626e-12  targ= 4.019006638e-09   trig= 4.013022272e-09
 nc_when_a= 0.000000000e+00
 nc_when_b= 1.000000000e+00
 nc_when_out= 0.000000000e+00
 nc_leak_i_a=-3.995069483e-08  from= 0.000000000e+00     to= 4.000000000e-09
 nc_leak_i_b=-1.439546722e-07  from= 0.000000000e+00     to= 4.000000000e-09
 nc_leak_i_vss= 2.394080512e-07  from= 0.000000000e+00     to= 4.000000000e-09
 nc_leak_i_vdd=-5.550268401e-08  from= 0.000000000e+00     to= 4.000000000e-09
   nc_dyn_energy= failed                         measure parameter failed
   t_int_energy= failed                         measure parameter failed
   nc_int_energy= failed                         measure parameter failed
   nc_dyn_eng_vss= failed                         measure parameter failed
   nc_dyn_eng_vdd= failed                         measure parameter failed
   nc_dyn_abs_energy= failed                         measure parameter failed
   nc_charge_vss= failed                         measure parameter failed
   nc_charge_vdd= failed                         measure parameter failed
 nc_sidecap= 2.400000000e-14

          ***** job concluded

   *** data name = stimdata , index =    14 ***

 ******  
 * hspice timing acquisition

  ******  transient analysis tnom=  25.000 temp=  25.000 *****
 nc_delay_a_out= 1.791893279e-11  targ= 4.039128802e-09   trig= 4.021209869e-09
 nc_inref_a= 4.021209869e-09
 nc_optr_out= 7.253306912e-12  targ= 4.042611359e-09   trig= 4.035358052e-09
   nc_fulloptr_out= failed                          trig= not found
 t_a_trip1= 4.016041013e-09
 t_a_trip2= 4.028027223e-09
 t_stop_a= 4.034828276e-09
   t_stop_out= failed
   t_simstop= failed                         measure parameter failed
 t_a_trip_incap1= 4.010240000e-09
 t_a_trip_incap2= 4.028027223e-09
 nc_intg_i_a= 2.986182355e-14  from= 4.010240000e-09     to= 4.028027223e-09
 nc_intg_i1_a= 1.839043224e-14  from= 4.010240000e-09     to= 4.021209869e-09
 nc_intg_i2_a= 1.147139130e-14  from= 4.021209869e-09     to= 4.028027223e-09
 nc_incap_a= 3.340248719e-14
 nc_incap_c1_a= 3.096032364e-14
 nc_incap_c2_a= 3.823797100e-14
 nc_iptr_a= 1.200000000e-11
 real_iptr_a= 1.198621020e-11  targ= 4.028027223e-09   trig= 4.016041013e-09
 nc_when_a= 0.000000000e+00
 nc_when_b= 1.000000000e+00
 nc_when_out= 0.000000000e+00
 nc_leak_i_a=-3.995069484e-08  from= 0.000000000e+00     to= 4.000000000e-09
 nc_leak_i_b=-1.439546723e-07  from= 0.000000000e+00     to= 4.000000000e-09
 nc_leak_i_vss= 2.394080512e-07  from= 0.000000000e+00     to= 4.000000000e-09
 nc_leak_i_vdd=-5.550268401e-08  from= 0.000000000e+00     to= 4.000000000e-09
   nc_dyn_energy= failed                         measure parameter failed
   t_int_energy= failed                         measure parameter failed
   nc_int_energy= failed                         measure parameter failed
   nc_dyn_eng_vss= failed                         measure parameter failed
   nc_dyn_eng_vdd= failed                         measure parameter failed
   nc_dyn_abs_energy= failed                         measure parameter failed
   nc_charge_vss= failed                         measure parameter failed
   nc_charge_vdd= failed                         measure parameter failed
 nc_sidecap= 2.400000000e-14

          ***** job concluded

   *** data name = stimdata , index =    15 ***

 ******  
 * hspice timing acquisition

  ******  transient analysis tnom=  25.000 temp=  25.000 *****
 nc_delay_a_out= 1.833078595e-11  targ= 4.039540216e-09   trig= 4.021209430e-09
 nc_inref_a= 4.021209430e-09
 nc_optr_out= 7.387468432e-12  targ= 4.043087489e-09   trig= 4.035700021e-09
   nc_fulloptr_out= failed                          trig= not found
 t_a_trip1= 4.016041013e-09
 t_a_trip2= 4.028027264e-09
 t_stop_a= 4.034828276e-09
   t_stop_out= failed
   t_simstop= failed                         measure parameter failed
 t_a_trip_incap1= 4.010240000e-09
 t_a_trip_incap2= 4.028027264e-09
 nc_intg_i_a= 2.989678715e-14  from= 4.010240000e-09     to= 4.028027264e-09
 nc_intg_i1_a= 1.842255865e-14  from= 4.010240000e-09     to= 4.021209430e-09
 nc_intg_i2_a= 1.147422850e-14  from= 4.021209430e-09     to= 4.028027264e-09
 nc_incap_a= 3.344159637e-14
 nc_incap_c1_a= 3.101440850e-14
 nc_incap_c2_a= 3.824742834e-14
 nc_iptr_a= 1.200000000e-11
 real_iptr_a= 1.198625134e-11  targ= 4.028027264e-09   trig= 4.016041013e-09
 nc_when_a= 0.000000000e+00
 nc_when_b= 1.000000000e+00
 nc_when_out= 0.000000000e+00
 nc_leak_i_a=-3.995069484e-08  from= 0.000000000e+00     to= 4.000000000e-09
 nc_leak_i_b=-1.439546723e-07  from= 0.000000000e+00     to= 4.000000000e-09
 nc_leak_i_vss= 2.394080512e-07  from= 0.000000000e+00     to= 4.000000000e-09
 nc_leak_i_vdd=-5.550268401e-08  from= 0.000000000e+00     to= 4.000000000e-09
   nc_dyn_energy= failed                         measure parameter failed
   t_int_energy= failed                         measure parameter failed
   nc_int_energy= failed                         measure parameter failed
   nc_dyn_eng_vss= failed                         measure parameter failed
   nc_dyn_eng_vdd= failed                         measure parameter failed
   nc_dyn_abs_energy= failed                         measure parameter failed
   nc_charge_vss= failed                         measure parameter failed
   nc_charge_vdd= failed                         measure parameter failed
 nc_sidecap= 2.400000000e-14

          ***** job concluded

   *** data name = stimdata , index =    16 ***

 ******  
 * hspice timing acquisition

  ******  transient analysis tnom=  25.000 temp=  25.000 *****
 nc_delay_a_out= 1.872231485e-11  targ= 4.039931466e-09   trig= 4.021209151e-09
 nc_inref_a= 4.021209151e-09
 nc_optr_out= 7.580979081e-12  targ= 4.043575665e-09   trig= 4.035994686e-09
   nc_fulloptr_out= failed                          trig= not found
 t_a_trip1= 4.016041013e-09
 t_a_trip2= 4.028027296e-09
 t_stop_a= 4.034828276e-09
   t_stop_out= failed
   t_simstop= failed                         measure parameter failed
 t_a_trip_incap1= 4.010240000e-09
 t_a_trip_incap2= 4.028027296e-09
 nc_intg_i_a= 2.992623073e-14  from= 4.010240000e-09     to= 4.028027296e-09
 nc_intg_i1_a= 1.844930365e-14  from= 4.010240000e-09     to= 4.021209151e-09
 nc_intg_i2_a= 1.147692708e-14  from= 4.021209151e-09     to= 4.028027296e-09
 nc_incap_a= 3.347453102e-14
 nc_incap_c1_a= 3.105943376e-14
 nc_incap_c2_a= 3.825642360e-14
 nc_iptr_a= 1.200000000e-11
 real_iptr_a= 1.198628279e-11  targ= 4.028027296e-09   trig= 4.016041013e-09
 nc_when_a= 0.000000000e+00
 nc_when_b= 1.000000000e+00
 nc_when_out= 0.000000000e+00
 nc_leak_i_a=-3.995069484e-08  from= 0.000000000e+00     to= 4.000000000e-09
 nc_leak_i_b=-1.439546722e-07  from= 0.000000000e+00     to= 4.000000000e-09
 nc_leak_i_vss= 2.394080512e-07  from= 0.000000000e+00     to= 4.000000000e-09
 nc_leak_i_vdd=-5.550268401e-08  from= 0.000000000e+00     to= 4.000000000e-09
   nc_dyn_energy= failed                         measure parameter failed
   t_int_energy= failed                         measure parameter failed
   nc_int_energy= failed                         measure parameter failed
   nc_dyn_eng_vss= failed                         measure parameter failed
   nc_dyn_eng_vdd= failed                         measure parameter failed
   nc_dyn_abs_energy= failed                         measure parameter failed
   nc_charge_vss= failed                         measure parameter failed
   nc_charge_vdd= failed                         measure parameter failed
 nc_sidecap= 2.400000000e-14

          ***** job concluded

   *** data name = stimdata , index =    17 ***

 ******  
 * hspice timing acquisition

  ******  transient analysis tnom=  25.000 temp=  25.000 *****
 nc_delay_a_out= 1.909720898e-11  targ= 4.040306185e-09   trig= 4.021208976e-09
 nc_inref_a= 4.021208976e-09
 nc_optr_out= 7.757596631e-12  targ= 4.044061764e-09   trig= 4.036304168e-09
   nc_fulloptr_out= failed                          trig= not found
 t_a_trip1= 4.016041013e-09
 t_a_trip2= 4.028027327e-09
 t_stop_a= 4.034828276e-09
   t_stop_out= failed
   t_simstop= failed                         measure parameter failed
 t_a_trip_incap1= 4.010240000e-09
 t_a_trip_incap2= 4.028027327e-09
 nc_intg_i_a= 2.995127897e-14  from= 4.010240000e-09     to= 4.028027327e-09
 nc_intg_i1_a= 1.847190277e-14  from= 4.010240000e-09     to= 4.021208976e-09
 nc_intg_i2_a= 1.147937620e-14  from= 4.021208976e-09     to= 4.028027327e-09
 nc_incap_a= 3.350254919e-14
 nc_incap_c1_a= 3.109747942e-14
 nc_incap_c2_a= 3.826458734e-14
 nc_iptr_a= 1.200000000e-11
 real_iptr_a= 1.198631455e-11  targ= 4.028027327e-09   trig= 4.016041013e-09
 nc_when_a= 0.000000000e+00
 nc_when_b= 1.000000000e+00
 nc_when_out= 0.000000000e+00
 nc_leak_i_a=-3.995069484e-08  from= 0.000000000e+00     to= 4.000000000e-09
 nc_leak_i_b=-1.439546722e-07  from= 0.000000000e+00     to= 4.000000000e-09
 nc_leak_i_vss= 2.394080512e-07  from= 0.000000000e+00     to= 4.000000000e-09
 nc_leak_i_vdd=-5.550268401e-08  from= 0.000000000e+00     to= 4.000000000e-09
   nc_dyn_energy= failed                         measure parameter failed
   t_int_energy= failed                         measure parameter failed
   nc_int_energy= failed                         measure parameter failed
   nc_dyn_eng_vss= failed                         measure parameter failed
   nc_dyn_eng_vdd= failed                         measure parameter failed
   nc_dyn_abs_energy= failed                         measure parameter failed
   nc_charge_vss= failed                         measure parameter failed
   nc_charge_vdd= failed                         measure parameter failed
 nc_sidecap= 2.400000000e-14

          ***** job concluded

   *** data name = stimdata , index =    18 ***

 ******  
 * hspice timing acquisition

  ******  transient analysis tnom=  25.000 temp=  25.000 *****
 nc_delay_a_out= 1.945060851e-11  targ= 4.040659477e-09   trig= 4.021208869e-09
 nc_inref_a= 4.021208869e-09
 nc_optr_out= 7.923870194e-12  targ= 4.044512305e-09   trig= 4.036588434e-09
   nc_fulloptr_out= failed                          trig= not found
 t_a_trip1= 4.016041013e-09
 t_a_trip2= 4.028027355e-09
 t_stop_a= 4.034828276e-09
   t_stop_out= failed
   t_simstop= failed                         measure parameter failed
 t_a_trip_incap1= 4.010240000e-09
 t_a_trip_incap2= 4.028027355e-09
 nc_intg_i_a= 2.997284284e-14  from= 4.010240000e-09     to= 4.028027355e-09
 nc_intg_i1_a= 1.849124302e-14  from= 4.010240000e-09     to= 4.021208869e-09
 nc_intg_i2_a= 1.148159983e-14  from= 4.021208869e-09     to= 4.028027355e-09
 nc_incap_a= 3.352666984e-14
 nc_incap_c1_a= 3.113003875e-14
 nc_incap_c2_a= 3.827199942e-14
 nc_iptr_a= 1.200000000e-11
 real_iptr_a= 1.198634198e-11  targ= 4.028027355e-09   trig= 4.016041013e-09
 nc_when_a= 0.000000000e+00
 nc_when_b= 1.000000000e+00
 nc_when_out= 0.000000000e+00
 nc_leak_i_a=-3.995069484e-08  from= 0.000000000e+00     to= 4.000000000e-09
 nc_leak_i_b=-1.439546722e-07  from= 0.000000000e+00     to= 4.000000000e-09
 nc_leak_i_vss= 2.394080512e-07  from= 0.000000000e+00     to= 4.000000000e-09
 nc_leak_i_vdd=-5.550268401e-08  from= 0.000000000e+00     to= 4.000000000e-09
   nc_dyn_energy= failed                         measure parameter failed
   t_int_energy= failed                         measure parameter failed
   nc_int_energy= failed                         measure parameter failed
   nc_dyn_eng_vss= failed                         measure parameter failed
   nc_dyn_eng_vdd= failed                         measure parameter failed
   nc_dyn_abs_energy= failed                         measure parameter failed
   nc_charge_vss= failed                         measure parameter failed
   nc_charge_vdd= failed                         measure parameter failed
 nc_sidecap= 2.400000000e-14

          ***** job concluded

   *** data name = stimdata , index =    19 ***

 ******  
 * hspice timing acquisition

  ******  transient analysis tnom=  25.000 temp=  25.000 *****
 nc_delay_a_out= 1.979588215e-11  targ= 4.041004689e-09   trig= 4.021208807e-09
 nc_inref_a= 4.021208807e-09
 nc_optr_out= 8.122078974e-12  targ= 4.044973935e-09   trig= 4.036851856e-09
   nc_fulloptr_out= failed                          trig= not found
 t_a_trip1= 4.016041013e-09
 t_a_trip2= 4.028027378e-09
 t_stop_a= 4.034828276e-09
   t_stop_out= failed
   t_simstop= failed                         measure parameter failed
 t_a_trip_incap1= 4.010240000e-09
 t_a_trip_incap2= 4.028027378e-09
 nc_intg_i_a= 2.999157248e-14  from= 4.010240000e-09     to= 4.028027378e-09
 nc_intg_i1_a= 1.850797694e-14  from= 4.010240000e-09     to= 4.021208807e-09
 nc_intg_i2_a= 1.148359554e-14  from= 4.021208807e-09     to= 4.028027378e-09
 nc_incap_a= 3.354762022e-14
 nc_incap_c1_a= 3.115821033e-14
 nc_incap_c2_a= 3.827865180e-14
 nc_iptr_a= 1.200000000e-11
 real_iptr_a= 1.198636528e-11  targ= 4.028027378e-09   trig= 4.016041013e-09
 nc_when_a= 0.000000000e+00
 nc_when_b= 1.000000000e+00
 nc_when_out= 0.000000000e+00
 nc_leak_i_a=-3.995069484e-08  from= 0.000000000e+00     to= 4.000000000e-09
 nc_leak_i_b=-1.439546722e-07  from= 0.000000000e+00     to= 4.000000000e-09
 nc_leak_i_vss= 2.394080512e-07  from= 0.000000000e+00     to= 4.000000000e-09
 nc_leak_i_vdd=-5.550268401e-08  from= 0.000000000e+00     to= 4.000000000e-09
   nc_dyn_energy= failed                         measure parameter failed
   t_int_energy= failed                         measure parameter failed
   nc_int_energy= failed                         measure parameter failed
   nc_dyn_eng_vss= failed                         measure parameter failed
   nc_dyn_eng_vdd= failed                         measure parameter failed
   nc_dyn_abs_energy= failed                         measure parameter failed
   nc_charge_vss= failed                         measure parameter failed
   nc_charge_vdd= failed                         measure parameter failed
 nc_sidecap= 2.400000000e-14

          ***** job concluded

   *** data name = stimdata , index =    20 ***

 ******  
 * hspice timing acquisition

  ******  transient analysis tnom=  25.000 temp=  25.000 *****
 nc_delay_a_out= 2.013038074e-11  targ= 4.041339155e-09   trig= 4.021208775e-09
 nc_inref_a= 4.021208775e-09
 nc_optr_out= 8.336444417e-12  targ= 4.045444230e-09   trig= 4.037107786e-09
   nc_fulloptr_out= failed                          trig= not found
 t_a_trip1= 4.016041013e-09
 t_a_trip2= 4.028027399e-09
 t_stop_a= 4.034828276e-09
   t_stop_out= failed
   t_simstop= failed                         measure parameter failed
 t_a_trip_incap1= 4.010240000e-09
 t_a_trip_incap2= 4.028027399e-09
 nc_intg_i_a= 3.000802073e-14  from= 4.010240000e-09     to= 4.028027399e-09
 nc_intg_i1_a= 1.852259486e-14  from= 4.010240000e-09     to= 4.021208775e-09
 nc_intg_i2_a= 1.148542587e-14  from= 4.021208775e-09     to= 4.028027399e-09
 nc_incap_a= 3.356601871e-14
 nc_incap_c1_a= 3.118281962e-14
 nc_incap_c2_a= 3.828475290e-14
 nc_iptr_a= 1.200000000e-11
 real_iptr_a= 1.198638647e-11  targ= 4.028027399e-09   trig= 4.016041013e-09
 nc_when_a= 0.000000000e+00
 nc_when_b= 1.000000000e+00
 nc_when_out= 0.000000000e+00
 nc_leak_i_a=-3.995069484e-08  from= 0.000000000e+00     to= 4.000000000e-09
 nc_leak_i_b=-1.439546722e-07  from= 0.000000000e+00     to= 4.000000000e-09
 nc_leak_i_vss= 2.394080512e-07  from= 0.000000000e+00     to= 4.000000000e-09
 nc_leak_i_vdd=-5.550268401e-08  from= 0.000000000e+00     to= 4.000000000e-09
   nc_dyn_energy= failed                         measure parameter failed
   t_int_energy= failed                         measure parameter failed
   nc_int_energy= failed                         measure parameter failed
   nc_dyn_eng_vss= failed                         measure parameter failed
   nc_dyn_eng_vdd= failed                         measure parameter failed
   nc_dyn_abs_energy= failed                         measure parameter failed
   nc_charge_vss= failed                         measure parameter failed
   nc_charge_vdd= failed                         measure parameter failed
 nc_sidecap= 2.400000000e-14

          ***** job concluded

   *** data name = stimdata , index =    21 ***

 ******  
 * hspice timing acquisition

  ******  transient analysis tnom=  25.000 temp=  25.000 *****
 nc_delay_a_out= 2.045080165e-11  targ= 4.041659565e-09   trig= 4.021208763e-09
 nc_inref_a= 4.021208763e-09
 nc_optr_out= 8.521860167e-12  targ= 4.045865334e-09   trig= 4.037343474e-09
   nc_fulloptr_out= failed                          trig= not found
 t_a_trip1= 4.016041013e-09
 t_a_trip2= 4.028027419e-09
 t_stop_a= 4.034828276e-09
   t_stop_out= failed
   t_simstop= failed                         measure parameter failed
 t_a_trip_incap1= 4.010240000e-09
 t_a_trip_incap2= 4.028027419e-09
 nc_intg_i_a= 3.002257699e-14  from= 4.010240000e-09     to= 4.028027419e-09
 nc_intg_i1_a= 1.853547205e-14  from= 4.010240000e-09     to= 4.021208763e-09
 nc_intg_i2_a= 1.148710494e-14  from= 4.021208763e-09     to= 4.028027419e-09
 nc_incap_a= 3.358230089e-14
 nc_incap_c1_a= 3.120449840e-14
 nc_incap_c2_a= 3.829034982e-14
 nc_iptr_a= 1.200000000e-11
 real_iptr_a= 1.198640574e-11  targ= 4.028027419e-09   trig= 4.016041013e-09
 nc_when_a= 0.000000000e+00
 nc_when_b= 1.000000000e+00
 nc_when_out= 0.000000000e+00
 nc_leak_i_a=-3.995069484e-08  from= 0.000000000e+00     to= 4.000000000e-09
 nc_leak_i_b=-1.439546722e-07  from= 0.000000000e+00     to= 4.000000000e-09
 nc_leak_i_vss= 2.394080512e-07  from= 0.000000000e+00     to= 4.000000000e-09
 nc_leak_i_vdd=-5.550268401e-08  from= 0.000000000e+00     to= 4.000000000e-09
   nc_dyn_energy= failed                         measure parameter failed
   t_int_energy= failed                         measure parameter failed
   nc_int_energy= failed                         measure parameter failed
   nc_dyn_eng_vss= failed                         measure parameter failed
   nc_dyn_eng_vdd= failed                         measure parameter failed
   nc_dyn_abs_energy= failed                         measure parameter failed
   nc_charge_vss= failed                         measure parameter failed
   nc_charge_vdd= failed                         measure parameter failed
 nc_sidecap= 2.400000000e-14

          ***** job concluded

   *** data name = stimdata , index =    22 ***

 ******  
 * hspice timing acquisition

  ******  transient analysis tnom=  25.000 temp=  25.000 *****
 nc_delay_a_out= 2.076244860e-11  targ= 4.041971214e-09   trig= 4.021208766e-09
 nc_inref_a= 4.021208766e-09
 nc_optr_out= 8.741585188e-12  targ= 4.046319411e-09   trig= 4.037577826e-09
   nc_fulloptr_out= failed                          trig= not found
 t_a_trip1= 4.016041013e-09
 t_a_trip2= 4.028027436e-09
 t_stop_a= 4.034828276e-09
   t_stop_out= failed
   t_simstop= failed                         measure parameter failed
 t_a_trip_incap1= 4.010240000e-09
 t_a_trip_incap2= 4.028027436e-09
 nc_intg_i_a= 3.003554761e-14  from= 4.010240000e-09     to= 4.028027436e-09
 nc_intg_i1_a= 1.854690045e-14  from= 4.010240000e-09     to= 4.021208766e-09
 nc_intg_i2_a= 1.148864716e-14  from= 4.021208766e-09     to= 4.028027436e-09
 nc_incap_a= 3.359680940e-14
 nc_incap_c1_a= 3.122373812e-14
 nc_incap_c2_a= 3.829549054e-14
 nc_iptr_a= 1.200000000e-11
 real_iptr_a= 1.198642329e-11  targ= 4.028027436e-09   trig= 4.016041013e-09
 nc_when_a= 0.000000000e+00
 nc_when_b= 1.000000000e+00
 nc_when_out= 0.000000000e+00
 nc_leak_i_a=-3.995069483e-08  from= 0.000000000e+00     to= 4.000000000e-09
 nc_leak_i_b=-1.439546722e-07  from= 0.000000000e+00     to= 4.000000000e-09
 nc_leak_i_vss= 2.394080512e-07  from= 0.000000000e+00     to= 4.000000000e-09
 nc_leak_i_vdd=-5.550268401e-08  from= 0.000000000e+00     to= 4.000000000e-09
   nc_dyn_energy= failed                         measure parameter failed
   t_int_energy= failed                         measure parameter failed
   nc_int_energy= failed                         measure parameter failed
   nc_dyn_eng_vss= failed                         measure parameter failed
   nc_dyn_eng_vdd= failed                         measure parameter failed
   nc_dyn_abs_energy= failed                         measure parameter failed
   nc_charge_vss= failed                         measure parameter failed
   nc_charge_vdd= failed                         measure parameter failed
 nc_sidecap= 2.400000000e-14

          ***** job concluded

   *** data name = stimdata , index =    23 ***

 ******  
 * hspice timing acquisition

  ******  transient analysis tnom=  25.000 temp=  25.000 *****
 nc_delay_a_out= 2.106558236e-11  targ= 4.042274257e-09   trig= 4.021208675e-09
 nc_inref_a= 4.021208675e-09
 nc_optr_out= 8.947234160e-12  targ= 4.046738726e-09   trig= 4.037791492e-09
   nc_fulloptr_out= failed                          trig= not found
 t_a_trip1= 4.016041013e-09
 t_a_trip2= 4.028027448e-09
 t_stop_a= 4.034828276e-09
   t_stop_out= failed
   t_simstop= failed                         measure parameter failed
 t_a_trip_incap1= 4.010240000e-09
 t_a_trip_incap2= 4.028027448e-09
 nc_intg_i_a= 3.004709025e-14  from= 4.010240000e-09     to= 4.028027448e-09
 nc_intg_i1_a= 1.855698101e-14  from= 4.010240000e-09     to= 4.021208675e-09
 nc_intg_i2_a= 1.149010923e-14  from= 4.021208675e-09     to= 4.028027448e-09
 nc_incap_a= 3.360972063e-14
 nc_incap_c1_a= 3.124070878e-14
 nc_incap_c2_a= 3.830036410e-14
 nc_iptr_a= 1.200000000e-11
 real_iptr_a= 1.198643529e-11  targ= 4.028027448e-09   trig= 4.016041013e-09
 nc_when_a= 0.000000000e+00
 nc_when_b= 1.000000000e+00
 nc_when_out= 0.000000000e+00
 nc_leak_i_a=-3.995069483e-08  from= 0.000000000e+00     to= 4.000000000e-09
 nc_leak_i_b=-1.439546722e-07  from= 0.000000000e+00     to= 4.000000000e-09
 nc_leak_i_vss= 2.394080512e-07  from= 0.000000000e+00     to= 4.000000000e-09
 nc_leak_i_vdd=-5.550268401e-08  from= 0.000000000e+00     to= 4.000000000e-09
   nc_dyn_energy= failed                         measure parameter failed
   t_int_energy= failed                         measure parameter failed
   nc_int_energy= failed                         measure parameter failed
   nc_dyn_eng_vss= failed                         measure parameter failed
   nc_dyn_eng_vdd= failed                         measure parameter failed
   nc_dyn_abs_energy= failed                         measure parameter failed
   nc_charge_vss= failed                         measure parameter failed
   nc_charge_vdd= failed                         measure parameter failed
 nc_sidecap= 2.400000000e-14

          ***** job concluded

   *** data name = stimdata , index =    24 ***

 ******  
 * hspice timing acquisition

  ******  transient analysis tnom=  25.000 temp=  25.000 *****
 nc_delay_a_out= 2.136412925e-11  targ= 4.042572609e-09   trig= 4.021208480e-09
 nc_inref_a= 4.021208480e-09
 nc_optr_out= 9.160696836e-12  targ= 4.047160288e-09   trig= 4.037999591e-09
   nc_fulloptr_out= failed                          trig= not found
 t_a_trip1= 4.016041013e-09
 t_a_trip2= 4.028027455e-09
 t_stop_a= 4.034828276e-09
   t_stop_out= failed
   t_simstop= failed                         measure parameter failed
 t_a_trip_incap1= 4.010240000e-09
 t_a_trip_incap2= 4.028027455e-09
 nc_intg_i_a= 3.005739742e-14  from= 4.010240000e-09     to= 4.028027455e-09
 nc_intg_i1_a= 1.856588808e-14  from= 4.010240000e-09     to= 4.021208480e-09
 nc_intg_i2_a= 1.149150935e-14  from= 4.021208480e-09     to= 4.028027455e-09
 nc_incap_a= 3.362124991e-14
 nc_incap_c1_a= 3.125570383e-14
 nc_incap_c2_a= 3.830503115e-14
 nc_iptr_a= 1.200000000e-11
 real_iptr_a= 1.198644170e-11  targ= 4.028027455e-09   trig= 4.016041013e-09
 nc_when_a= 0.000000000e+00
 nc_when_b= 1.000000000e+00
 nc_when_out= 0.000000000e+00
 nc_leak_i_a=-3.995069483e-08  from= 0.000000000e+00     to= 4.000000000e-09
 nc_leak_i_b=-1.439546722e-07  from= 0.000000000e+00     to= 4.000000000e-09
 nc_leak_i_vss= 2.394080512e-07  from= 0.000000000e+00     to= 4.000000000e-09
 nc_leak_i_vdd=-5.550268401e-08  from= 0.000000000e+00     to= 4.000000000e-09
   nc_dyn_energy= failed                         measure parameter failed
   t_int_energy= failed                         measure parameter failed
   nc_int_energy= failed                         measure parameter failed
   nc_dyn_eng_vss= failed                         measure parameter failed
   nc_dyn_eng_vdd= failed                         measure parameter failed
   nc_dyn_abs_energy= failed                         measure parameter failed
   nc_charge_vss= failed                         measure parameter failed
   nc_charge_vdd= failed                         measure parameter failed
 nc_sidecap= 2.400000000e-14

          ***** job concluded

   *** data name = stimdata , index =    25 ***

 ******  
 * hspice timing acquisition

  ******  transient analysis tnom=  25.000 temp=  25.000 *****
 nc_delay_a_out= 2.175603497e-11  targ= 4.042964305e-09   trig= 4.021208270e-09
 nc_inref_a= 4.021208270e-09
 nc_optr_out= 9.459382431e-12  targ= 4.047724326e-09   trig= 4.038264943e-09
   nc_fulloptr_out= failed                          trig= not found
 t_a_trip1= 4.016041013e-09
 t_a_trip2= 4.028027463e-09
 t_stop_a= 4.034828276e-09
   t_stop_out= failed
   t_simstop= failed                         measure parameter failed
 t_a_trip_incap1= 4.010240000e-09
 t_a_trip_incap2= 4.028027463e-09
 nc_intg_i_a= 3.006966983e-14  from= 4.010240000e-09     to= 4.028027463e-09
 nc_intg_i1_a= 1.857646113e-14  from= 4.010240000e-09     to= 4.021208270e-09
 nc_intg_i2_a= 1.149320870e-14  from= 4.021208270e-09     to= 4.028027463e-09
 nc_incap_a= 3.363497744e-14
 nc_incap_c1_a= 3.127350358e-14
 nc_incap_c2_a= 3.831069568e-14
 nc_iptr_a= 1.200000000e-11
 real_iptr_a= 1.198645018e-11  targ= 4.028027463e-09   trig= 4.016041013e-09
 nc_when_a= 0.000000000e+00
 nc_when_b= 1.000000000e+00
 nc_when_out= 0.000000000e+00
 nc_leak_i_a=-3.995069483e-08  from= 0.000000000e+00     to= 4.000000000e-09
 nc_leak_i_b=-1.439546722e-07  from= 0.000000000e+00     to= 4.000000000e-09
 nc_leak_i_vss= 2.394080512e-07  from= 0.000000000e+00     to= 4.000000000e-09
 nc_leak_i_vdd=-5.550268401e-08  from= 0.000000000e+00     to= 4.000000000e-09
   nc_dyn_energy= failed                         measure parameter failed
   t_int_energy= failed                         measure parameter failed
   nc_int_energy= failed                         measure parameter failed
   nc_dyn_eng_vss= failed                         measure parameter failed
   nc_dyn_eng_vdd= failed                         measure parameter failed
   nc_dyn_abs_energy= failed                         measure parameter failed
   nc_charge_vss= failed                         measure parameter failed
   nc_charge_vdd= failed                         measure parameter failed
 nc_sidecap= 2.400000000e-14

          ***** job concluded

   *** data name = stimdata , index =    26 ***

 ******  
 * hspice timing acquisition

  ******  transient analysis tnom=  25.000 temp=  25.000 *****
 nc_delay_a_out= 2.194663738e-11  targ= 4.043154819e-09   trig= 4.021208181e-09
 nc_inref_a= 4.021208181e-09
 nc_optr_out= 9.619710770e-12  targ= 4.048005364e-09   trig= 4.038385654e-09
   nc_fulloptr_out= failed                          trig= not found
 t_a_trip1= 4.016041013e-09
 t_a_trip2= 4.028027467e-09
 t_stop_a= 4.034828276e-09
   t_stop_out= failed
   t_simstop= failed                         measure parameter failed
 t_a_trip_incap1= 4.010240000e-09
 t_a_trip_incap2= 4.028027467e-09
 nc_intg_i_a= 3.007525924e-14  from= 4.010240000e-09     to= 4.028027467e-09
 nc_intg_i1_a= 1.858126525e-14  from= 4.010240000e-09     to= 4.021208181e-09
 nc_intg_i2_a= 1.149399398e-14  from= 4.021208181e-09     to= 4.028027467e-09
 nc_incap_a= 3.364122957e-14
 nc_incap_c1_a= 3.128159133e-14
 nc_incap_c2_a= 3.831331328e-14
 nc_iptr_a= 1.200000000e-11
 real_iptr_a= 1.198645432e-11  targ= 4.028027467e-09   trig= 4.016041013e-09
 nc_when_a= 0.000000000e+00
 nc_when_b= 1.000000000e+00
 nc_when_out= 0.000000000e+00
 nc_leak_i_a=-3.995069483e-08  from= 0.000000000e+00     to= 4.000000000e-09
 nc_leak_i_b=-1.439546722e-07  from= 0.000000000e+00     to= 4.000000000e-09
 nc_leak_i_vss= 2.394080512e-07  from= 0.000000000e+00     to= 4.000000000e-09
 nc_leak_i_vdd=-5.550268401e-08  from= 0.000000000e+00     to= 4.000000000e-09
   nc_dyn_energy= failed                         measure parameter failed
   t_int_energy= failed                         measure parameter failed
   nc_int_energy= failed                         measure parameter failed
   nc_dyn_eng_vss= failed                         measure parameter failed
   nc_dyn_eng_vdd= failed                         measure parameter failed
   nc_dyn_abs_energy= failed                         measure parameter failed
   nc_charge_vss= failed                         measure parameter failed
   nc_charge_vdd= failed                         measure parameter failed
 nc_sidecap= 2.400000000e-14

          ***** job concluded

   *** data name = stimdata , index =    27 ***

 ******  
 * hspice timing acquisition

  ******  transient analysis tnom=  25.000 temp=  25.000 *****
 nc_delay_a_out= 2.192534346e-11  targ= 4.054367534e-09   trig= 4.032442191e-09
 nc_inref_a= 4.032442191e-09
 nc_optr_out= 8.085762255e-12  targ= 4.058256252e-09   trig= 4.050170489e-09
   nc_fulloptr_out= failed                          trig= not found
 t_a_trip1= 4.022082026e-09
 t_a_trip2= 4.046046755e-09
 t_stop_a= 4.059656553e-09
   t_stop_out= failed
   t_simstop= failed                         measure parameter failed
 t_a_trip_incap1= 4.010480000e-09
 t_a_trip_incap2= 4.046046755e-09
 nc_intg_i_a= 3.172627929e-14  from= 4.010480000e-09     to= 4.046046755e-09
 nc_intg_i1_a= 1.892083307e-14  from= 4.010480000e-09     to= 4.032442191e-09
 nc_intg_i2_a= 1.280544622e-14  from= 4.032442191e-09     to= 4.046046755e-09
 nc_incap_a= 3.548800815e-14
 nc_incap_c1_a= 3.185325432e-14
 nc_incap_c2_a= 4.268482074e-14
 nc_iptr_a= 2.400000000e-11
 real_iptr_a= 2.396472950e-11  targ= 4.046046755e-09   trig= 4.022082026e-09
 nc_when_a= 0.000000000e+00
 nc_when_b= 1.000000000e+00
 nc_when_out= 0.000000000e+00
 nc_leak_i_a=-3.995069484e-08  from= 0.000000000e+00     to= 4.000000000e-09
 nc_leak_i_b=-1.439546723e-07  from= 0.000000000e+00     to= 4.000000000e-09
 nc_leak_i_vss= 2.394080512e-07  from= 0.000000000e+00     to= 4.000000000e-09
 nc_leak_i_vdd=-5.550268401e-08  from= 0.000000000e+00     to= 4.000000000e-09
   nc_dyn_energy= failed                         measure parameter failed
   t_int_energy= failed                         measure parameter failed
   nc_int_energy= failed                         measure parameter failed
   nc_dyn_eng_vss= failed                         measure parameter failed
   nc_dyn_eng_vdd= failed                         measure parameter failed
   nc_dyn_abs_energy= failed                         measure parameter failed
   nc_charge_vss= failed                         measure parameter failed
   nc_charge_vdd= failed                         measure parameter failed
 nc_sidecap= 2.400000000e-14

          ***** job concluded

   *** data name = stimdata , index =    28 ***

 ******  
 * hspice timing acquisition

  ******  transient analysis tnom=  25.000 temp=  25.000 *****
 nc_delay_a_out= 2.236709526e-11  targ= 4.054810182e-09   trig= 4.032443087e-09
 nc_inref_a= 4.032443087e-09
 nc_optr_out= 8.217103848e-12  targ= 4.058783587e-09   trig= 4.050566483e-09
   nc_fulloptr_out= failed                          trig= not found
 t_a_trip1= 4.022082026e-09
 t_a_trip2= 4.046046755e-09
 t_stop_a= 4.059656553e-09
   t_stop_out= failed
   t_simstop= failed                         measure parameter failed
 t_a_trip_incap1= 4.010480000e-09
 t_a_trip_incap2= 4.046046755e-09
 nc_intg_i_a= 3.175886201e-14  from= 4.010480000e-09     to= 4.046046755e-09
 nc_intg_i1_a= 1.894909067e-14  from= 4.010480000e-09     to= 4.032443087e-09
 nc_intg_i2_a= 1.280977134e-14  from= 4.032443087e-09     to= 4.046046755e-09
 nc_incap_a= 3.552445415e-14
 nc_incap_c1_a= 3.190082605e-14
 nc_incap_c2_a= 4.269923779e-14
 nc_iptr_a= 2.400000000e-11
 real_iptr_a= 2.396472950e-11  targ= 4.046046755e-09   trig= 4.022082026e-09
 nc_when_a= 0.000000000e+00
 nc_when_b= 1.000000000e+00
 nc_when_out= 0.000000000e+00
 nc_leak_i_a=-3.995069484e-08  from= 0.000000000e+00     to= 4.000000000e-09
 nc_leak_i_b=-1.439546723e-07  from= 0.000000000e+00     to= 4.000000000e-09
 nc_leak_i_vss= 2.394080512e-07  from= 0.000000000e+00     to= 4.000000000e-09
 nc_leak_i_vdd=-5.550268401e-08  from= 0.000000000e+00     to= 4.000000000e-09
   nc_dyn_energy= failed                         measure parameter failed
   t_int_energy= failed                         measure parameter failed
   nc_int_energy= failed                         measure parameter failed
   nc_dyn_eng_vss= failed                         measure parameter failed
   nc_dyn_eng_vdd= failed                         measure parameter failed
   nc_dyn_abs_energy= failed                         measure parameter failed
   nc_charge_vss= failed                         measure parameter failed
   nc_charge_vdd= failed                         measure parameter failed
 nc_sidecap= 2.400000000e-14

          ***** job concluded

   *** data name = stimdata , index =    29 ***

 ******  
 * hspice timing acquisition

  ******  transient analysis tnom=  25.000 temp=  25.000 *****
 nc_delay_a_out= 2.278906969e-11  targ= 4.055231889e-09   trig= 4.032442819e-09
 nc_inref_a= 4.032442819e-09
 nc_optr_out= 8.427027844e-12  targ= 4.059308408e-09   trig= 4.050881381e-09
   nc_fulloptr_out= failed                          trig= not found
 t_a_trip1= 4.022082026e-09
 t_a_trip2= 4.046047085e-09
 t_stop_a= 4.059656553e-09
   t_stop_out= failed
   t_simstop= failed                         measure parameter failed
 t_a_trip_incap1= 4.010480000e-09
 t_a_trip_incap2= 4.046047085e-09
 nc_intg_i_a= 3.178525587e-14  from= 4.010480000e-09     to= 4.046047085e-09
 nc_intg_i1_a= 1.897245277e-14  from= 4.010480000e-09     to= 4.032442819e-09
 nc_intg_i2_a= 1.281280311e-14  from= 4.032442819e-09     to= 4.046047085e-09
 nc_incap_a= 3.555397749e-14
 nc_incap_c1_a= 3.194015617e-14
 nc_incap_c2_a= 4.270934369e-14
 nc_iptr_a= 2.400000000e-11
 real_iptr_a= 2.396505937e-11  targ= 4.046047085e-09   trig= 4.022082026e-09
 nc_when_a= 0.000000000e+00
 nc_when_b= 1.000000000e+00
 nc_when_out= 0.000000000e+00
 nc_leak_i_a=-3.995069484e-08  from= 0.000000000e+00     to= 4.000000000e-09
 nc_leak_i_b=-1.439546722e-07  from= 0.000000000e+00     to= 4.000000000e-09
 nc_leak_i_vss= 2.394080512e-07  from= 0.000000000e+00     to= 4.000000000e-09
 nc_leak_i_vdd=-5.550268401e-08  from= 0.000000000e+00     to= 4.000000000e-09
   nc_dyn_energy= failed                         measure parameter failed
   t_int_energy= failed                         measure parameter failed
   nc_int_energy= failed                         measure parameter failed
   nc_dyn_eng_vss= failed                         measure parameter failed
   nc_dyn_eng_vdd= failed                         measure parameter failed
   nc_dyn_abs_energy= failed                         measure parameter failed
   nc_charge_vss= failed                         measure parameter failed
   nc_charge_vdd= failed                         measure parameter failed
 nc_sidecap= 2.400000000e-14

          ***** job concluded

   *** data name = stimdata , index =    30 ***

 ******  
 * hspice timing acquisition

  ******  transient analysis tnom=  25.000 temp=  25.000 *****
 nc_delay_a_out= 2.320348506e-11  targ= 4.055645676e-09   trig= 4.032442191e-09
 nc_inref_a= 4.032442191e-09
 nc_optr_out= 8.624015923e-12  targ= 4.059812747e-09   trig= 4.051188731e-09
   nc_fulloptr_out= failed                          trig= not found
 t_a_trip1= 4.022082026e-09
 t_a_trip2= 4.046046755e-09
 t_stop_a= 4.059656553e-09
   t_stop_out= failed
   t_simstop= failed                         measure parameter failed
 t_a_trip_incap1= 4.010480000e-09
 t_a_trip_incap2= 4.046046755e-09
 nc_intg_i_a= 3.180636132e-14  from= 4.010480000e-09     to= 4.046046755e-09
 nc_intg_i1_a= 1.899235457e-14  from= 4.010480000e-09     to= 4.032442191e-09
 nc_intg_i2_a= 1.281400675e-14  from= 4.032442191e-09     to= 4.046046755e-09
 nc_incap_a= 3.557758537e-14
 nc_incap_c1_a= 3.197366089e-14
 nc_incap_c2_a= 4.271335584e-14
 nc_iptr_a= 2.400000000e-11
 real_iptr_a= 2.396472950e-11  targ= 4.046046755e-09   trig= 4.022082026e-09
 nc_when_a= 0.000000000e+00
 nc_when_b= 1.000000000e+00
 nc_when_out= 0.000000000e+00
 nc_leak_i_a=-3.995069484e-08  from= 0.000000000e+00     to= 4.000000000e-09
 nc_leak_i_b=-1.439546722e-07  from= 0.000000000e+00     to= 4.000000000e-09
 nc_leak_i_vss= 2.394080512e-07  from= 0.000000000e+00     to= 4.000000000e-09
 nc_leak_i_vdd=-5.550268401e-08  from= 0.000000000e+00     to= 4.000000000e-09
   nc_dyn_energy= failed                         measure parameter failed
   t_int_energy= failed                         measure parameter failed
   nc_int_energy= failed                         measure parameter failed
   nc_dyn_eng_vss= failed                         measure parameter failed
   nc_dyn_eng_vdd= failed                         measure parameter failed
   nc_dyn_abs_energy= failed                         measure parameter failed
   nc_charge_vss= failed                         measure parameter failed
   nc_charge_vdd= failed                         measure parameter failed
 nc_sidecap= 2.400000000e-14

          ***** job concluded

   *** data name = stimdata , index =    31 ***

 ******  
 * hspice timing acquisition

  ******  transient analysis tnom=  25.000 temp=  25.000 *****
 nc_delay_a_out= 2.361262040e-11  targ= 4.056057135e-09   trig= 4.032444515e-09
 nc_inref_a= 4.032444515e-09
 nc_optr_out= 8.800251469e-12  targ= 4.060316268e-09   trig= 4.051516016e-09
   nc_fulloptr_out= failed                          trig= not found
 t_a_trip1= 4.022082026e-09
 t_a_trip2= 4.046046755e-09
 t_stop_a= 4.059656553e-09
   t_stop_out= failed
   t_simstop= failed                         measure parameter failed
 t_a_trip_incap1= 4.010480000e-09
 t_a_trip_incap2= 4.046046755e-09
 nc_intg_i_a= 3.182462014e-14  from= 4.010480000e-09     to= 4.046046755e-09
 nc_intg_i1_a= 1.901656645e-14  from= 4.010480000e-09     to= 4.032444515e-09
 nc_intg_i2_a= 1.280805369e-14  from= 4.032444515e-09     to= 4.046046755e-09
 nc_incap_a= 3.559800910e-14
 nc_incap_c1_a= 3.201442163e-14
 nc_incap_c2_a= 4.269351230e-14
 nc_iptr_a= 2.400000000e-11
 real_iptr_a= 2.396472950e-11  targ= 4.046046755e-09   trig= 4.022082026e-09
 nc_when_a= 0.000000000e+00
 nc_when_b= 1.000000000e+00
 nc_when_out= 0.000000000e+00
 nc_leak_i_a=-3.995069484e-08  from= 0.000000000e+00     to= 4.000000000e-09
 nc_leak_i_b=-1.439546722e-07  from= 0.000000000e+00     to= 4.000000000e-09
 nc_leak_i_vss= 2.394080512e-07  from= 0.000000000e+00     to= 4.000000000e-09
 nc_leak_i_vdd=-5.550268401e-08  from= 0.000000000e+00     to= 4.000000000e-09
   nc_dyn_energy= failed                         measure parameter failed
   t_int_energy= failed                         measure parameter failed
   nc_int_energy= failed                         measure parameter failed
   nc_dyn_eng_vss= failed                         measure parameter failed
   nc_dyn_eng_vdd= failed                         measure parameter failed
   nc_dyn_abs_energy= failed                         measure parameter failed
   nc_charge_vss= failed                         measure parameter failed
   nc_charge_vdd= failed                         measure parameter failed
 nc_sidecap= 2.400000000e-14

          ***** job concluded

   *** data name = stimdata , index =    32 ***

 ******  
 * hspice timing acquisition

  ******  transient analysis tnom=  25.000 temp=  25.000 *****
 nc_delay_a_out= 2.399222021e-11  targ= 4.056437978e-09   trig= 4.032445757e-09
 nc_inref_a= 4.032445757e-09
 nc_optr_out= 8.991431449e-12  targ= 4.060769822e-09   trig= 4.051778391e-09
   nc_fulloptr_out= failed                          trig= not found
 t_a_trip1= 4.022082026e-09
 t_a_trip2= 4.046046755e-09
 t_stop_a= 4.059656553e-09
   t_stop_out= failed
   t_simstop= failed                         measure parameter failed
 t_a_trip_incap1= 4.010480000e-09
 t_a_trip_incap2= 4.046046755e-09
 nc_intg_i_a= 3.184012365e-14  from= 4.010480000e-09     to= 4.046046755e-09
 nc_intg_i1_a= 1.903142094e-14  from= 4.010480000e-09     to= 4.032445757e-09
 nc_intg_i2_a= 1.280870271e-14  from= 4.032445757e-09     to= 4.046046755e-09
 nc_incap_a= 3.561535084e-14
 nc_incap_c1_a= 3.203942919e-14
 nc_incap_c2_a= 4.269567569e-14
 nc_iptr_a= 2.400000000e-11
 real_iptr_a= 2.396472950e-11  targ= 4.046046755e-09   trig= 4.022082026e-09
 nc_when_a= 0.000000000e+00
 nc_when_b= 1.000000000e+00
 nc_when_out= 0.000000000e+00
 nc_leak_i_a=-3.995069484e-08  from= 0.000000000e+00     to= 4.000000000e-09
 nc_leak_i_b=-1.439546722e-07  from= 0.000000000e+00     to= 4.000000000e-09
 nc_leak_i_vss= 2.394080512e-07  from= 0.000000000e+00     to= 4.000000000e-09
 nc_leak_i_vdd=-5.550268401e-08  from= 0.000000000e+00     to= 4.000000000e-09
   nc_dyn_energy= failed                         measure parameter failed
   t_int_energy= failed                         measure parameter failed
   nc_int_energy= failed                         measure parameter failed
   nc_dyn_eng_vss= failed                         measure parameter failed
   nc_dyn_eng_vdd= failed                         measure parameter failed
   nc_dyn_abs_energy= failed                         measure parameter failed
   nc_charge_vss= failed                         measure parameter failed
   nc_charge_vdd= failed                         measure parameter failed
 nc_sidecap= 2.400000000e-14

          ***** job concluded

   *** data name = stimdata , index =    33 ***

 ******  
 * hspice timing acquisition

  ******  transient analysis tnom=  25.000 temp=  25.000 *****
 nc_delay_a_out= 2.435472092e-11  targ= 4.056801564e-09   trig= 4.032446843e-09
 nc_inref_a= 4.032446843e-09
 nc_optr_out= 9.200903882e-12  targ= 4.061237477e-09   trig= 4.052036573e-09
   nc_fulloptr_out= failed                          trig= not found
 t_a_trip1= 4.022082026e-09
 t_a_trip2= 4.046046755e-09
 t_stop_a= 4.059656553e-09
   t_stop_out= failed
   t_simstop= failed                         measure parameter failed
 t_a_trip_incap1= 4.010480000e-09
 t_a_trip_incap2= 4.046046755e-09
 nc_intg_i_a= 3.185383081e-14  from= 4.010480000e-09     to= 4.046046755e-09
 nc_intg_i1_a= 1.904438776e-14  from= 4.010480000e-09     to= 4.032446843e-09
 nc_intg_i2_a= 1.280944305e-14  from= 4.032446843e-09     to= 4.046046755e-09
 nc_incap_a= 3.563068324e-14
 nc_incap_c1_a= 3.206125886e-14
 nc_incap_c2_a= 4.269814351e-14
 nc_iptr_a= 2.400000000e-11
 real_iptr_a= 2.396472950e-11  targ= 4.046046755e-09   trig= 4.022082026e-09
 nc_when_a= 0.000000000e+00
 nc_when_b= 1.000000000e+00
 nc_when_out= 0.000000000e+00
 nc_leak_i_a=-3.995069484e-08  from= 0.000000000e+00     to= 4.000000000e-09
 nc_leak_i_b=-1.439546722e-07  from= 0.000000000e+00     to= 4.000000000e-09
 nc_leak_i_vss= 2.394080512e-07  from= 0.000000000e+00     to= 4.000000000e-09
 nc_leak_i_vdd=-5.550268401e-08  from= 0.000000000e+00     to= 4.000000000e-09
   nc_dyn_energy= failed                         measure parameter failed
   t_int_energy= failed                         measure parameter failed
   nc_int_energy= failed                         measure parameter failed
   nc_dyn_eng_vss= failed                         measure parameter failed
   nc_dyn_eng_vdd= failed                         measure parameter failed
   nc_dyn_abs_energy= failed                         measure parameter failed
   nc_charge_vss= failed                         measure parameter failed
   nc_charge_vdd= failed                         measure parameter failed
 nc_sidecap= 2.400000000e-14

          ***** job concluded

   *** data name = stimdata , index =    34 ***

 ******  
 * hspice timing acquisition

  ******  transient analysis tnom=  25.000 temp=  25.000 *****
 nc_delay_a_out= 2.470130166e-11  targ= 4.057149094e-09   trig= 4.032447792e-09
 nc_inref_a= 4.032447792e-09
 nc_optr_out= 9.409275148e-12  targ= 4.061699466e-09   trig= 4.052290191e-09
   nc_fulloptr_out= failed                          trig= not found
 t_a_trip1= 4.022082026e-09
 t_a_trip2= 4.046046755e-09
 t_stop_a= 4.059656553e-09
   t_stop_out= failed
   t_simstop= failed                         measure parameter failed
 t_a_trip_incap1= 4.010480000e-09
 t_a_trip_incap2= 4.046046755e-09
 nc_intg_i_a= 3.186604437e-14  from= 4.010480000e-09     to= 4.046046755e-09
 nc_intg_i1_a= 1.905580203e-14  from= 4.010480000e-09     to= 4.032447792e-09
 nc_intg_i2_a= 1.281024234e-14  from= 4.032447792e-09     to= 4.046046755e-09
 nc_incap_a= 3.564434493e-14
 nc_incap_c1_a= 3.208047480e-14
 nc_incap_c2_a= 4.270080779e-14
 nc_iptr_a= 2.400000000e-11
 real_iptr_a= 2.396472950e-11  targ= 4.046046755e-09   trig= 4.022082026e-09
 nc_when_a= 0.000000000e+00
 nc_when_b= 1.000000000e+00
 nc_when_out= 0.000000000e+00
 nc_leak_i_a=-3.995069484e-08  from= 0.000000000e+00     to= 4.000000000e-09
 nc_leak_i_b=-1.439546722e-07  from= 0.000000000e+00     to= 4.000000000e-09
 nc_leak_i_vss= 2.394080512e-07  from= 0.000000000e+00     to= 4.000000000e-09
 nc_leak_i_vdd=-5.550268401e-08  from= 0.000000000e+00     to= 4.000000000e-09
   nc_dyn_energy= failed                         measure parameter failed
   t_int_energy= failed                         measure parameter failed
   nc_int_energy= failed                         measure parameter failed
   nc_dyn_eng_vss= failed                         measure parameter failed
   nc_dyn_eng_vdd= failed                         measure parameter failed
   nc_dyn_abs_energy= failed                         measure parameter failed
   nc_charge_vss= failed                         measure parameter failed
   nc_charge_vdd= failed                         measure parameter failed
 nc_sidecap= 2.400000000e-14

          ***** job concluded

   *** data name = stimdata , index =    35 ***

 ******  
 * hspice timing acquisition

  ******  transient analysis tnom=  25.000 temp=  25.000 *****
 nc_delay_a_out= 2.503056124e-11  targ= 4.057479185e-09   trig= 4.032448623e-09
 nc_inref_a= 4.032448623e-09
 nc_optr_out= 9.622642204e-12  targ= 4.062161749e-09   trig= 4.052539107e-09
   nc_fulloptr_out= failed                          trig= not found
 t_a_trip1= 4.022082026e-09
 t_a_trip2= 4.046046755e-09
 t_stop_a= 4.059656553e-09
   t_stop_out= failed
   t_simstop= failed                         measure parameter failed
 t_a_trip_incap1= 4.010480000e-09
 t_a_trip_incap2= 4.046046755e-09
 nc_intg_i_a= 3.187699945e-14  from= 4.010480000e-09     to= 4.046046755e-09
 nc_intg_i1_a= 1.906592496e-14  from= 4.010480000e-09     to= 4.032448623e-09
 nc_intg_i2_a= 1.281107449e-14  from= 4.032448623e-09     to= 4.046046755e-09
 nc_incap_a= 3.565659894e-14
 nc_incap_c1_a= 3.209751677e-14
 nc_incap_c2_a= 4.270358162e-14
 nc_iptr_a= 2.400000000e-11
 real_iptr_a= 2.396472950e-11  targ= 4.046046755e-09   trig= 4.022082026e-09
 nc_when_a= 0.000000000e+00
 nc_when_b= 1.000000000e+00
 nc_when_out= 0.000000000e+00
 nc_leak_i_a=-3.995069483e-08  from= 0.000000000e+00     to= 4.000000000e-09
 nc_leak_i_b=-1.439546722e-07  from= 0.000000000e+00     to= 4.000000000e-09
 nc_leak_i_vss= 2.394080512e-07  from= 0.000000000e+00     to= 4.000000000e-09
 nc_leak_i_vdd=-5.550268401e-08  from= 0.000000000e+00     to= 4.000000000e-09
   nc_dyn_energy= failed                         measure parameter failed
   t_int_energy= failed                         measure parameter failed
   nc_int_energy= failed                         measure parameter failed
   nc_dyn_eng_vss= failed                         measure parameter failed
   nc_dyn_eng_vdd= failed                         measure parameter failed
   nc_dyn_abs_energy= failed                         measure parameter failed
   nc_charge_vss= failed                         measure parameter failed
   nc_charge_vdd= failed                         measure parameter failed
 nc_sidecap= 2.400000000e-14

          ***** job concluded

   *** data name = stimdata , index =    36 ***

 ******  
 * hspice timing acquisition

  ******  transient analysis tnom=  25.000 temp=  25.000 *****
 nc_delay_a_out= 2.532658138e-11  targ= 4.057775935e-09   trig= 4.032449354e-09
 nc_inref_a= 4.032449354e-09
 nc_optr_out= 9.845707372e-12  targ= 4.062566685e-09   trig= 4.052720978e-09
   nc_fulloptr_out= failed                          trig= not found
 t_a_trip1= 4.022082026e-09
 t_a_trip2= 4.046007953e-09
 t_stop_a= 4.059656553e-09
   t_stop_out= failed
   t_simstop= failed                         measure parameter failed
 t_a_trip_incap1= 4.010480000e-09
 t_a_trip_incap2= 4.046007953e-09
 nc_intg_i_a= 3.192657898e-14  from= 4.010480000e-09     to= 4.046007953e-09
 nc_intg_i1_a= 1.907496286e-14  from= 4.010480000e-09     to= 4.032449354e-09
 nc_intg_i2_a= 1.285161612e-14  from= 4.032449354e-09     to= 4.046007953e-09
 nc_incap_a= 3.571205702e-14
 nc_incap_c1_a= 3.211273209e-14
 nc_incap_c2_a= 4.283872039e-14
 nc_iptr_a= 2.400000000e-11
 real_iptr_a= 2.392592710e-11  targ= 4.046007953e-09   trig= 4.022082026e-09
 nc_when_a= 0.000000000e+00
 nc_when_b= 1.000000000e+00
 nc_when_out= 0.000000000e+00
 nc_leak_i_a=-3.995069483e-08  from= 0.000000000e+00     to= 4.000000000e-09
 nc_leak_i_b=-1.439546722e-07  from= 0.000000000e+00     to= 4.000000000e-09
 nc_leak_i_vss= 2.394080512e-07  from= 0.000000000e+00     to= 4.000000000e-09
 nc_leak_i_vdd=-5.550268401e-08  from= 0.000000000e+00     to= 4.000000000e-09
   nc_dyn_energy= failed                         measure parameter failed
   t_int_energy= failed                         measure parameter failed
   nc_int_energy= failed                         measure parameter failed
   nc_dyn_eng_vss= failed                         measure parameter failed
   nc_dyn_eng_vdd= failed                         measure parameter failed
   nc_dyn_abs_energy= failed                         measure parameter failed
   nc_charge_vss= failed                         measure parameter failed
   nc_charge_vdd= failed                         measure parameter failed
 nc_sidecap= 2.400000000e-14

          ***** job concluded

   *** data name = stimdata , index =    37 ***

 ******  
 * hspice timing acquisition

  ******  transient analysis tnom=  25.000 temp=  25.000 *****
 nc_delay_a_out= 2.565250155e-11  targ= 4.058102500e-09   trig= 4.032449998e-09
 nc_inref_a= 4.032449998e-09
 nc_optr_out= 1.003584564e-11  targ= 4.062993502e-09   trig= 4.052957656e-09
   nc_fulloptr_out= failed                          trig= not found
 t_a_trip1= 4.022082026e-09
 t_a_trip2= 4.046009152e-09
 t_stop_a= 4.059656553e-09
   t_stop_out= failed
   t_simstop= failed                         measure parameter failed
 t_a_trip_incap1= 4.010480000e-09
 t_a_trip_incap2= 4.046009152e-09
 nc_intg_i_a= 3.193860280e-14  from= 4.010480000e-09     to= 4.046009152e-09
 nc_intg_i1_a= 1.908308062e-14  from= 4.010480000e-09     to= 4.032449998e-09
 nc_intg_i2_a= 1.285552217e-14  from= 4.032449998e-09     to= 4.046009152e-09
 nc_incap_a= 3.572550648e-14
 nc_incap_c1_a= 3.212639835e-14
 nc_incap_c2_a= 4.285174058e-14
 nc_iptr_a= 2.400000000e-11
 real_iptr_a= 2.392712613e-11  targ= 4.046009152e-09   trig= 4.022082026e-09
 nc_when_a= 0.000000000e+00
 nc_when_b= 1.000000000e+00
[...]
 nc_when_b= 1.000000000e+00
 nc_when_out= 0.000000000e+00
 nc_leak_i_a=-3.995069484e-08  from= 0.000000000e+00     to= 4.000000000e-09
 nc_leak_i_b=-1.439546722e-07  from= 0.000000000e+00     to= 4.000000000e-09
 nc_leak_i_vss= 2.394080512e-07  from= 0.000000000e+00     to= 4.000000000e-09
 nc_leak_i_vdd=-5.550268401e-08  from= 0.000000000e+00     to= 4.000000000e-09
   nc_dyn_energy= failed                         measure parameter failed
   t_int_energy= failed                         measure parameter failed
   nc_int_energy= failed                         measure parameter failed
   nc_dyn_eng_vss= failed                         measure parameter failed
   nc_dyn_eng_vdd= failed                         measure parameter failed
   nc_dyn_abs_energy= failed                         measure parameter failed
   nc_charge_vss= failed                         measure parameter failed
   nc_charge_vdd= failed                         measure parameter failed
 nc_sidecap= 2.400000000e-14

          ***** job concluded

   *** data name = stimdata , index =    97 ***

 ******  
 * hspice timing acquisition

  ******  transient analysis tnom=  25.000 temp=  25.000 *****
 nc_delay_a_out= 1.616533381e-10  targ= 4.919726362e-09   trig= 4.758073024e-09
 nc_inref_a= 4.758073024e-09
 nc_optr_out= 5.408930254e-11  targ= 4.948889727e-09   trig= 4.894800425e-09
   nc_fulloptr_out= failed                          trig= not found
 t_a_trip1= 4.412734190e-09
 t_a_trip2= 5.211558506e-09
 t_stop_a= 5.665218426e-09
   t_stop_out= failed
   t_simstop= failed                         measure parameter failed
 t_a_trip_incap1= 4.026000000e-09
 t_a_trip_incap2= 5.211558506e-09
 nc_intg_i_a= 3.398806080e-14  from= 4.026000000e-09     to= 5.211558506e-09
 nc_intg_i1_a= 1.969148995e-14  from= 4.026000000e-09     to= 4.758073024e-09
 nc_intg_i2_a= 1.429657085e-14  from= 4.758073024e-09     to= 5.211558506e-09
 nc_incap_a= 3.801796511e-14
 nc_incap_c1_a= 3.315065649e-14
 nc_incap_c2_a= 4.765523617e-14
 nc_iptr_a= 8.000000000e-10
 real_iptr_a= 7.988243168e-10  targ= 5.211558506e-09   trig= 4.412734190e-09
 nc_when_a= 0.000000000e+00
 nc_when_b= 1.000000000e+00
 nc_when_out= 0.000000000e+00
 nc_leak_i_a=-3.995069484e-08  from= 0.000000000e+00     to= 4.000000000e-09
 nc_leak_i_b=-1.439546722e-07  from= 0.000000000e+00     to= 4.000000000e-09
 nc_leak_i_vss= 2.394080512e-07  from= 0.000000000e+00     to= 4.000000000e-09
 nc_leak_i_vdd=-5.550268401e-08  from= 0.000000000e+00     to= 4.000000000e-09
   nc_dyn_energy= failed                         measure parameter failed
   t_int_energy= failed                         measure parameter failed
   nc_int_energy= failed                         measure parameter failed
   nc_dyn_eng_vss= failed                         measure parameter failed
   nc_dyn_eng_vdd= failed                         measure parameter failed
   nc_dyn_abs_energy= failed                         measure parameter failed
   nc_charge_vss= failed                         measure parameter failed
   nc_charge_vdd= failed                         measure parameter failed
 nc_sidecap= 2.400000000e-14

          ***** job concluded

   *** data name = stimdata , index =    98 ***

 ******  
 * hspice timing acquisition

  ******  transient analysis tnom=  25.000 temp=  25.000 *****
 nc_delay_a_out= 1.628667356e-10  targ= 4.920939759e-09   trig= 4.758073024e-09
 nc_inref_a= 4.758073024e-09
 nc_optr_out= 5.340628228e-11  targ= 4.949625118e-09   trig= 4.896218836e-09
   nc_fulloptr_out= failed                          trig= not found
 t_a_trip1= 4.412734190e-09
 t_a_trip2= 5.211558506e-09
 t_stop_a= 5.665218426e-09
   t_stop_out= failed
   t_simstop= failed                         measure parameter failed
 t_a_trip_incap1= 4.026000000e-09
 t_a_trip_incap2= 5.211558506e-09
 nc_intg_i_a= 3.399868945e-14  from= 4.026000000e-09     to= 5.211558506e-09
 nc_intg_i1_a= 1.970285770e-14  from= 4.026000000e-09     to= 4.758073024e-09
 nc_intg_i2_a= 1.429583174e-14  from= 4.758073024e-09     to= 5.211558506e-09
 nc_incap_a= 3.802985397e-14
 nc_incap_c1_a= 3.316979412e-14
 nc_incap_c2_a= 4.765277248e-14
 nc_iptr_a= 8.000000000e-10
 real_iptr_a= 7.988243168e-10  targ= 5.211558506e-09   trig= 4.412734190e-09
 nc_when_a= 0.000000000e+00
 nc_when_b= 1.000000000e+00
 nc_when_out= 0.000000000e+00
 nc_leak_i_a=-3.995069484e-08  from= 0.000000000e+00     to= 4.000000000e-09
 nc_leak_i_b=-1.439546722e-07  from= 0.000000000e+00     to= 4.000000000e-09
 nc_leak_i_vss= 2.394080512e-07  from= 0.000000000e+00     to= 4.000000000e-09
 nc_leak_i_vdd=-5.550268401e-08  from= 0.000000000e+00     to= 4.000000000e-09
   nc_dyn_energy= failed                         measure parameter failed
   t_int_energy= failed                         measure parameter failed
   nc_int_energy= failed                         measure parameter failed
   nc_dyn_eng_vss= failed                         measure parameter failed
   nc_dyn_eng_vdd= failed                         measure parameter failed
   nc_dyn_abs_energy= failed                         measure parameter failed
   nc_charge_vss= failed                         measure parameter failed
   nc_charge_vdd= failed                         measure parameter failed
 nc_sidecap= 2.400000000e-14

          ***** job concluded

   *** data name = stimdata , index =    99 ***

 ******  
 * hspice timing acquisition

  ******  transient analysis tnom=  25.000 temp=  25.000 *****
 nc_delay_a_out= 1.640208858e-10  targ= 4.922093910e-09   trig= 4.758073024e-09
 nc_inref_a= 4.758073024e-09
 nc_optr_out= 5.289900903e-11  targ= 4.950374589e-09   trig= 4.897475580e-09
   nc_fulloptr_out= failed                          trig= not found
 t_a_trip1= 4.412734190e-09
 t_a_trip2= 5.211558506e-09
 t_stop_a= 5.665218426e-09
   t_stop_out= failed
   t_simstop= failed                         measure parameter failed
 t_a_trip_incap1= 4.026000000e-09
 t_a_trip_incap2= 5.211558506e-09
 nc_intg_i_a= 3.400472993e-14  from= 4.026000000e-09     to= 5.211558506e-09
 nc_intg_i1_a= 1.971291884e-14  from= 4.026000000e-09     to= 4.758073024e-09
 nc_intg_i2_a= 1.429181110e-14  from= 4.758073024e-09     to= 5.211558506e-09
 nc_incap_a= 3.803661067e-14
 nc_incap_c1_a= 3.318673205e-14
 nc_incap_c2_a= 4.763937032e-14
 nc_iptr_a= 8.000000000e-10
 real_iptr_a= 7.988243168e-10  targ= 5.211558506e-09   trig= 4.412734190e-09
 nc_when_a= 0.000000000e+00
 nc_when_b= 1.000000000e+00
 nc_when_out= 0.000000000e+00
 nc_leak_i_a=-3.995069484e-08  from= 0.000000000e+00     to= 4.000000000e-09
 nc_leak_i_b=-1.439546722e-07  from= 0.000000000e+00     to= 4.000000000e-09
 nc_leak_i_vss= 2.394080512e-07  from= 0.000000000e+00     to= 4.000000000e-09
 nc_leak_i_vdd=-5.550268401e-08  from= 0.000000000e+00     to= 4.000000000e-09
   nc_dyn_energy= failed                         measure parameter failed
   t_int_energy= failed                         measure parameter failed
   nc_int_energy= failed                         measure parameter failed
   nc_dyn_eng_vss= failed                         measure parameter failed
   nc_dyn_eng_vdd= failed                         measure parameter failed
   nc_dyn_abs_energy= failed                         measure parameter failed
   nc_charge_vss= failed                         measure parameter failed
   nc_charge_vdd= failed                         measure parameter failed
 nc_sidecap= 2.400000000e-14

          ***** job concluded

   *** data name = stimdata , index =   100 ***

 ******  
 * hspice timing acquisition

  ******  transient analysis tnom=  25.000 temp=  25.000 *****
 nc_delay_a_out= 1.651258730e-10  targ= 4.923198897e-09   trig= 4.758073024e-09
 nc_inref_a= 4.758073024e-09
 nc_optr_out= 5.258454036e-11  targ= 4.951133639e-09   trig= 4.898549098e-09
   nc_fulloptr_out= failed                          trig= not found
 t_a_trip1= 4.412734190e-09
 t_a_trip2= 5.211558506e-09
 t_stop_a= 5.665218426e-09
   t_stop_out= failed
   t_simstop= failed                         measure parameter failed
 t_a_trip_incap1= 4.026000000e-09
 t_a_trip_incap2= 5.211558506e-09
 nc_intg_i_a= 3.399986962e-14  from= 4.026000000e-09     to= 5.211558506e-09
 nc_intg_i1_a= 1.972188581e-14  from= 4.026000000e-09     to= 4.758073024e-09
 nc_intg_i2_a= 1.427798382e-14  from= 4.758073024e-09     to= 5.211558506e-09
 nc_incap_a= 3.803117408e-14
 nc_incap_c1_a= 3.320182796e-14
 nc_incap_c2_a= 4.759327939e-14
 nc_iptr_a= 8.000000000e-10
 real_iptr_a= 7.988243168e-10  targ= 5.211558506e-09   trig= 4.412734190e-09
 nc_when_a= 0.000000000e+00
 nc_when_b= 1.000000000e+00
 nc_when_out= 0.000000000e+00
 nc_leak_i_a=-3.995069483e-08  from= 0.000000000e+00     to= 4.000000000e-09
 nc_leak_i_b=-1.439546722e-07  from= 0.000000000e+00     to= 4.000000000e-09
 nc_leak_i_vss= 2.394080512e-07  from= 0.000000000e+00     to= 4.000000000e-09
 nc_leak_i_vdd=-5.550268401e-08  from= 0.000000000e+00     to= 4.000000000e-09
   nc_dyn_energy= failed                         measure parameter failed
   t_int_energy= failed                         measure parameter failed
   nc_int_energy= failed                         measure parameter failed
   nc_dyn_eng_vss= failed                         measure parameter failed
   nc_dyn_eng_vdd= failed                         measure parameter failed
   nc_dyn_abs_energy= failed                         measure parameter failed
   nc_charge_vss= failed                         measure parameter failed
   nc_charge_vdd= failed                         measure parameter failed
 nc_sidecap= 2.400000000e-14

          ***** job concluded

   *** data name = stimdata , index =   101 ***

 ******  
 * hspice timing acquisition

  ******  transient analysis tnom=  25.000 temp=  25.000 *****
 nc_delay_a_out= 1.661955298e-10  targ= 4.924268554e-09   trig= 4.758073024e-09
 nc_inref_a= 4.758073024e-09
 nc_optr_out= 5.231975572e-11  targ= 4.951899161e-09   trig= 4.899579405e-09
   nc_fulloptr_out= failed                          trig= not found
 t_a_trip1= 4.412734190e-09
 t_a_trip2= 5.211558506e-09
 t_stop_a= 5.665218426e-09
   t_stop_out= failed
   t_simstop= failed                         measure parameter failed
 t_a_trip_incap1= 4.026000000e-09
 t_a_trip_incap2= 5.211558506e-09
 nc_intg_i_a= 3.398940142e-14  from= 4.026000000e-09     to= 5.211558506e-09
 nc_intg_i1_a= 1.972992747e-14  from= 4.026000000e-09     to= 4.758073024e-09
 nc_intg_i2_a= 1.425947395e-14  from= 4.758073024e-09     to= 5.211558506e-09
 nc_incap_a= 3.801946468e-14
 nc_incap_c1_a= 3.321536612e-14
 nc_incap_c2_a= 4.753157983e-14
 nc_iptr_a= 8.000000000e-10
 real_iptr_a= 7.988243168e-10  targ= 5.211558506e-09   trig= 4.412734190e-09
 nc_when_a= 0.000000000e+00
 nc_when_b= 1.000000000e+00
 nc_when_out= 0.000000000e+00
 nc_leak_i_a=-3.995069483e-08  from= 0.000000000e+00     to= 4.000000000e-09
 nc_leak_i_b=-1.439546722e-07  from= 0.000000000e+00     to= 4.000000000e-09
 nc_leak_i_vss= 2.394080512e-07  from= 0.000000000e+00     to= 4.000000000e-09
 nc_leak_i_vdd=-5.550268401e-08  from= 0.000000000e+00     to= 4.000000000e-09
   nc_dyn_energy= failed                         measure parameter failed
   t_int_energy= failed                         measure parameter failed
   nc_int_energy= failed                         measure parameter failed
   nc_dyn_eng_vss= failed                         measure parameter failed
   nc_dyn_eng_vdd= failed                         measure parameter failed
   nc_dyn_abs_energy= failed                         measure parameter failed
   nc_charge_vss= failed                         measure parameter failed
   nc_charge_vdd= failed                         measure parameter failed
 nc_sidecap= 2.400000000e-14

          ***** job concluded

   *** data name = stimdata , index =   102 ***

 ******  
 * hspice timing acquisition

  ******  transient analysis tnom=  25.000 temp=  25.000 *****
 nc_delay_a_out= 1.672227024e-10  targ= 4.925295726e-09   trig= 4.758073024e-09
 nc_inref_a= 4.758073024e-09
 nc_optr_out= 5.210034401e-11  targ= 4.952666888e-09   trig= 4.900566544e-09
   nc_fulloptr_out= failed                          trig= not found
 t_a_trip1= 4.412734190e-09
 t_a_trip2= 5.211558506e-09
 t_stop_a= 5.665218426e-09
   t_stop_out= failed
   t_simstop= failed                         measure parameter failed
 t_a_trip_incap1= 4.026000000e-09
 t_a_trip_incap2= 5.211558506e-09
 nc_intg_i_a= 3.397971786e-14  from= 4.026000000e-09     to= 5.211558506e-09
 nc_intg_i1_a= 1.973717974e-14  from= 4.026000000e-09     to= 4.758073024e-09
 nc_intg_i2_a= 1.424253812e-14  from= 4.758073024e-09     to= 5.211558506e-09
 nc_incap_a= 3.800863296e-14
 nc_incap_c1_a= 3.322757533e-14
 nc_incap_c2_a= 4.747512706e-14
 nc_iptr_a= 8.000000000e-10
 real_iptr_a= 7.988243168e-10  targ= 5.211558506e-09   trig= 4.412734190e-09
 nc_when_a= 0.000000000e+00
 nc_when_b= 1.000000000e+00
 nc_when_out= 0.000000000e+00
 nc_leak_i_a=-3.995069483e-08  from= 0.000000000e+00     to= 4.000000000e-09
 nc_leak_i_b=-1.439546722e-07  from= 0.000000000e+00     to= 4.000000000e-09
 nc_leak_i_vss= 2.394080512e-07  from= 0.000000000e+00     to= 4.000000000e-09
 nc_leak_i_vdd=-5.550268401e-08  from= 0.000000000e+00     to= 4.000000000e-09
   nc_dyn_energy= failed                         measure parameter failed
   t_int_energy= failed                         measure parameter failed
   nc_int_energy= failed                         measure parameter failed
   nc_dyn_eng_vss= failed                         measure parameter failed
   nc_dyn_eng_vdd= failed                         measure parameter failed
   nc_dyn_abs_energy= failed                         measure parameter failed
   nc_charge_vss= failed                         measure parameter failed
   nc_charge_vdd= failed                         measure parameter failed
 nc_sidecap= 2.400000000e-14

          ***** job concluded

   *** data name = stimdata , index =   103 ***

 ******  
 * hspice timing acquisition

  ******  transient analysis tnom=  25.000 temp=  25.000 *****
 nc_delay_a_out= 1.680592767e-10  targ= 4.926132300e-09   trig= 4.758073024e-09
 nc_inref_a= 4.758073024e-09
 nc_optr_out= 5.203872283e-11  targ= 4.953864444e-09   trig= 4.901825721e-09
   nc_fulloptr_out= failed                          trig= not found
 t_a_trip1= 4.412734190e-09
 t_a_trip2= 5.211558506e-09
 t_stop_a= 5.665218426e-09
   t_stop_out= failed
   t_simstop= failed                         measure parameter failed
 t_a_trip_incap1= 4.026000000e-09
 t_a_trip_incap2= 5.211558506e-09
 nc_intg_i_a= 3.402831926e-14  from= 4.026000000e-09     to= 5.211558506e-09
 nc_intg_i1_a= 1.974580968e-14  from= 4.026000000e-09     to= 4.758073024e-09
 nc_intg_i2_a= 1.428250958e-14  from= 4.758073024e-09     to= 5.211558506e-09
 nc_incap_a= 3.806299693e-14
 nc_incap_c1_a= 3.324210384e-14
 nc_incap_c2_a= 4.760836527e-14
 nc_iptr_a= 8.000000000e-10
 real_iptr_a= 7.988243168e-10  targ= 5.211558506e-09   trig= 4.412734190e-09
 nc_when_a= 0.000000000e+00
 nc_when_b= 1.000000000e+00
 nc_when_out= 0.000000000e+00
 nc_leak_i_a=-3.995069483e-08  from= 0.000000000e+00     to= 4.000000000e-09
 nc_leak_i_b=-1.439546722e-07  from= 0.000000000e+00     to= 4.000000000e-09
 nc_leak_i_vss= 2.394080512e-07  from= 0.000000000e+00     to= 4.000000000e-09
 nc_leak_i_vdd=-5.550268401e-08  from= 0.000000000e+00     to= 4.000000000e-09
   nc_dyn_energy= failed                         measure parameter failed
   t_int_energy= failed                         measure parameter failed
   nc_int_energy= failed                         measure parameter failed
   nc_dyn_eng_vss= failed                         measure parameter failed
   nc_dyn_eng_vdd= failed                         measure parameter failed
   nc_dyn_abs_energy= failed                         measure parameter failed
   nc_charge_vss= failed                         measure parameter failed
   nc_charge_vdd= failed                         measure parameter failed
 nc_sidecap= 2.400000000e-14

          ***** job concluded

   *** data name = stimdata , index =   104 ***

 ******  
 * hspice timing acquisition

  ******  transient analysis tnom=  25.000 temp=  25.000 *****
 nc_delay_a_out= 1.687412421e-10  targ= 4.926814266e-09   trig= 4.758073024e-09
 nc_inref_a= 4.758073024e-09
 nc_optr_out= 5.200828588e-11  targ= 4.954441271e-09   trig= 4.902432985e-09
   nc_fulloptr_out= failed                          trig= not found
 t_a_trip1= 4.412734190e-09
 t_a_trip2= 5.211558506e-09
 t_stop_a= 5.665218426e-09
   t_stop_out= failed
   t_simstop= failed                         measure parameter failed
 t_a_trip_incap1= 4.026000000e-09
 t_a_trip_incap2= 5.211558506e-09
 nc_intg_i_a= 3.403039124e-14  from= 4.026000000e-09     to= 5.211558506e-09
 nc_intg_i1_a= 1.974973870e-14  from= 4.026000000e-09     to= 4.758073024e-09
 nc_intg_i2_a= 1.428065254e-14  from= 4.758073024e-09     to= 5.211558506e-09
 nc_incap_a= 3.806531459e-14
 nc_incap_c1_a= 3.324871835e-14
 nc_incap_c2_a= 4.760217513e-14
 nc_iptr_a= 8.000000000e-10
 real_iptr_a= 7.988243168e-10  targ= 5.211558506e-09   trig= 4.412734190e-09
 nc_when_a= 0.000000000e+00
 nc_when_b= 1.000000000e+00
 nc_when_out= 0.000000000e+00
 nc_leak_i_a=-3.995069483e-08  from= 0.000000000e+00     to= 4.000000000e-09
 nc_leak_i_b=-1.439546722e-07  from= 0.000000000e+00     to= 4.000000000e-09
 nc_leak_i_vss= 2.394080512e-07  from= 0.000000000e+00     to= 4.000000000e-09
 nc_leak_i_vdd=-5.550268401e-08  from= 0.000000000e+00     to= 4.000000000e-09
   nc_dyn_energy= failed                         measure parameter failed
   t_int_energy= failed                         measure parameter failed
   nc_int_energy= failed                         measure parameter failed
   nc_dyn_eng_vss= failed                         measure parameter failed
   nc_dyn_eng_vdd= failed                         measure parameter failed
   nc_dyn_abs_energy= failed                         measure parameter failed
   nc_charge_vss= failed                         measure parameter failed
   nc_charge_vdd= failed                         measure parameter failed
 nc_sidecap= 2.400000000e-14

          ***** job concluded
 ****** HSPICE -- F-2011.09-SP1 64-BIT (Nov 18 2011) linux ******               
 ******  
 * hspice timing acquisition

  ******  job statistics summary tnom=  25.000 temp=  25.000 *****
  
  
 ******  Machine Information  ******
 CPU:
 model name	: Intel(R) Xeon(R) CPU E5-2680 0 @ 2.70GHz
 cpu MHz	: 2693.630
  
 OS:
 Linux version 2.6.18-406.el5 (mockbuild@builder17.centos.org) (gcc version 4.1.
 2 20080704 (Red Hat 4.1.2-55)) #1 SMP Tue Jun 2 17:25:57 EDT 2015


  ******  HSPICE Threads Information  ******

  Command Line Threads Count :     1
  Available CPU Count        :    16
  Actual Threads Count       :     1


  ******  Circuit Statistics  ******
  # nodes       =      34 # elements   =      64
  # resistors   =      24 # capacitors =      13 # inductors   =       0
  # mutual_inds =       0 # vccs       =       0 # vcvs        =       0
  # cccs        =       0 # ccvs       =       0 # volt_srcs   =       7
  # curr_srcs   =       0 # diodes     =      16 # bjts        =       0
  # jfets       =       0 # mosfets    =       4 # U elements  =       0
  # T elements  =       0 # W elements =       0 # B elements  =       0
  # S elements  =       0 # P elements =       0 # va device   =       0
  # vector_srcs =       0


  ******  Runtime Statistics (seconds)  ******

  analysis           time    # points   tot. iter  conv.iter
  op point           0.07           1        1976
  transient          0.69       50024       24179       10003 rev=      1174
  readin             0.54
  errchk             0.01
  setup              0.00
  output             0.02


           peak memory used        181.95 megabytes
           total cpu time            1.35 seconds
           total elapsed time        8.20 seconds
           job started at     16:13:14 10/02/2017
           job ended   at     16:13:22 10/02/2017


 lic: Release hspice token(s) 
