***** HSPICE -- F-2011.09-SP1 64-BIT (Nov 18 2011) linux ******
 Input File: /home/Rezayi/Desktop/NCXtemplate/creation/PassTransistor/Xor2/tOut_
 lic:
 lic: FLEXlm: v10.8
 lic: USER:   Rezayi               HOSTNAME: Microelectronic.lab.edu
 lic: HOSTID: ac162d8b13a0         PID:      28119
 **error** stop simulation by signal SIGINT = 2

