 ****** HSPICE -- F-2011.09-SP1 64-BIT (Nov 18 2011) linux ******               
  Copyright (C) 2011 Synopsys, Inc. All Rights Reserved.                        
  Unpublished-rights reserved under US copyright laws.
  This program is protected by law and is subject to the
  terms and conditions of the license agreement from Synopsys.
  Use of this program is your acceptance to be bound by the
  license agreement. HSPICE is the trademark of Synopsys, Inc.
  Input File: /home/Rezayi/Desktop/NCXtemplate/creation/PassTransistor/inv/tZN_I
  Command line options: -i /home/Rezayi/Desktop/NCXtemplate/creation/PassTransistor/inv/tZN_I_0000f/tZN_I_0000f.sp -o /home/Rezayi/Desktop/NCXtemplate/creation/PassTransistor/inv/tZN_I_0000f/tZN_I_0000f
 lic:  
 lic: FLEXlm: v10.8 
 lic: USER:   Rezayi               HOSTNAME: Microelectronic.lab.edu 
 lic: HOSTID: ac162d8b13a0         PID:      5148 
 lic: Using FLEXlm license file: 
 lic: /opt/Admin/cadence.dat 
 lic: Checkout 1 hspice 
 lic: License/Maintenance for hspice will expire on 31-dec-2019/2019.12 
 lic: NODE LOCKED license on hostid ac162d8b13a0 
 lic:   
  **warning** Warning(s) associated with encrypted block(s) were suppressed due to encrypted content.

  **warning** (/home/Rezayi/Desktop/NCXtemplate/creation/../netlists/inv.spc:4) Above line is not allowed within subcircuit. The line is ignored.
  **warning** (/home/Rezayi/Desktop/NCXtemplate/creation/../netlists/inv.spc:12) Parameter  lr       is ignored
  **warning** (/home/Rezayi/Desktop/NCXtemplate/creation/../netlists/inv.spc:12) Parameter  wr       is ignored
  **warning** (/home/Rezayi/Desktop/NCXtemplate/creation/../netlists/inv.spc:12) Parameter  nr       is ignored
  **warning** (/home/Rezayi/Desktop/NCXtemplate/creation/../netlists/inv.spc:12) Parameter  mismatch is ignored
  **warning** (/home/Rezayi/Desktop/NCXtemplate/creation/../netlists/inv.spc:13) Parameter  lr       is ignored
  **warning** (/home/Rezayi/Desktop/NCXtemplate/creation/../netlists/inv.spc:13) Parameter  wr       is ignored
  **warning** (/home/Rezayi/Desktop/NCXtemplate/creation/../netlists/inv.spc:13) Parameter  nr       is ignored
  **warning** (/home/Rezayi/Desktop/NCXtemplate/creation/../netlists/inv.spc:13) Parameter  mismatch is ignored
  **info**  the obsolete option nopage is ignored
  **info** (/home/Rezayi/Desktop/NCXtemplate/creation/PassTransistor/inv/tZN_I_0000f/tZN_I_0000f.sp:110) DC voltage reset to initial transient source value              in source        0:vn_i2               new dc=  0.0000D+00
  **warning** (/home/Rezayi/Desktop/NCXtemplate/creation/PassTransistor/inv/tZN_I_0000f/tZN_I_0000f.sp:74) Capacitance value for element cld_zn <=0; check the value.
  **error** (/home/Rezayi/Desktop/NCXtemplate/creation/../netlists/inv.spc:12) Reference nmos_rf not found.   It was referenced in element x_inv.mm2. The channel width=   1.000E-04 and length=   1.000E-04

          ***** job aborted
 ****** HSPICE -- F-2011.09-SP1 64-BIT (Nov 18 2011) linux ******               
 ******  
 * hspice timing acquisition

  ******  job statistics summary tnom=  25.000 temp=  25.000 *****
  
  
 ******  Machine Information  ******
 CPU:
 model name	: Intel(R) Xeon(R) CPU E5-2680 0 @ 2.70GHz
 cpu MHz	: 2693.620
  
 OS:
 Linux version 2.6.18-406.el5 (mockbuild@builder17.centos.org) (gcc version 4.1.
 2 20080704 (Red Hat 4.1.2-55)) #1 SMP Tue Jun 2 17:25:57 EDT 2015


  ******  HSPICE Threads Information  ******

  Command Line Threads Count :     1
  Available CPU Count        :    16
  Actual Threads Count       :     1


  ******  Circuit Statistics  ******
  # nodes       =       7 # elements   =       8
  # resistors   =       0 # capacitors =       1 # inductors   =       0
  # mutual_inds =       0 # vccs       =       0 # vcvs        =       0
  # cccs        =       0 # ccvs       =       0 # volt_srcs   =       5
  # curr_srcs   =       0 # diodes     =       0 # bjts        =       0
  # jfets       =       0 # mosfets    =       2 # U elements  =       0
  # T elements  =       0 # W elements =       0 # B elements  =       0
  # S elements  =       0 # P elements =       0 # va device   =       0
  # vector_srcs =       0


  ******  Runtime Statistics (seconds)  ******

  analysis           time    # points   tot. iter  conv.iter
  op point           0.00           1           0
  transient          0.00         121           0           0 rev=         0
  readin             0.72
  errchk             0.00
  setup              0.00
  output             0.00


           peak memory used        183.25 megabytes
           total cpu time            0.73 seconds
           total elapsed time        7.61 seconds
           job started at     16:57:02 05/14/2016
           job ended   at     16:57:10 05/14/2016


 lic: Release hspice token(s) 
